# generated using pymatgen
data_Sr2VO4
_symmetry_space_group_name_H-M   'P 1'
_cell_length_a   3.84148699
_cell_length_b   3.84148699
_cell_length_c   7.00072736
_cell_angle_alpha   105.92408172
_cell_angle_beta   105.92408168
_cell_angle_gamma   89.99999998
_symmetry_Int_Tables_number   1
_chemical_formula_structural   Sr2VO4
_chemical_formula_sum   'Sr2 V1 O4'
_cell_volume   95.21615974
_cell_formula_units_Z   1
loop_
 _symmetry_equiv_pos_site_id
 _symmetry_equiv_pos_as_xyz
  1  'x, y, z'
loop_
 _atom_site_type_symbol
 _atom_site_label
 _atom_site_symmetry_multiplicity
 _atom_site_fract_x
 _atom_site_fract_y
 _atom_site_fract_z
 _atom_site_occupancy
  O  O0  1  0.84092797  0.84092956  0.68185807  1
  O  O1  1  0.15907063  0.15907066  0.31814218  1
  O  O2  1  0.50000090  0.00000000  0.99999974  1
  O  O3  1  0.00000112  0.50000014  0.99999980  1
  V  V4  1  0.00000000  0.00000000  0.00000000  1
  Sr  Sr5  1  0.64810930  0.64810974  0.29621820  1
  Sr  Sr6  1  0.35189203  0.35189048  0.70378103  1
