# generated using pymatgen
data_Co5SbO8
_symmetry_space_group_name_H-M   'P 1'
_cell_length_a   6.01032439
_cell_length_b   6.00786423
_cell_length_c   10.73321456
_cell_angle_alpha   74.19824720
_cell_angle_beta   90.29562801
_cell_angle_gamma   59.72607654
_symmetry_Int_Tables_number   1
_chemical_formula_structural   Co5SbO8
_chemical_formula_sum   'Co10 Sb2 O16'
_cell_volume   317.29778440
_cell_formula_units_Z   2
loop_
 _symmetry_equiv_pos_site_id
 _symmetry_equiv_pos_as_xyz
  1  'x, y, z'
loop_
 _atom_site_type_symbol
 _atom_site_label
 _atom_site_symmetry_multiplicity
 _atom_site_fract_x
 _atom_site_fract_y
 _atom_site_fract_z
 _atom_site_occupancy
  Co  Co0  1  0.68232400  0.13469600  0.54744000  1
  Co  Co1  1  0.31808900  0.86529100  0.45291400  1
  Co  Co2  1  0.81808900  0.86539100  0.95285200  1
  Co  Co3  1  0.25048200  0.99979100  0.74996600  1
  Co  Co4  1  0.74976200  0.50049800  0.74995200  1
  Co  Co5  1  0.18314500  0.13598000  0.04702200  1
  Co  Co6  1  0.75011600  0.50006800  0.25003300  1
  Co  Co7  1  0.25022300  0.50031500  0.74990000  1
  Co  Co8  1  0.75038200  0.99956000  0.25009700  1
  Co  Co9  1  0.24963200  0.50028800  0.25009500  1
  Sb  Sb10  1  0.49971600  0.49955100  0.00014800  1
  Sb  Sb11  1  0.00038000  0.50048000  0.49991000  1
  O  O12  1  0.61837600  0.26513800  0.35315400  1
  O  O13  1  0.11110400  0.25793400  0.85238800  1
  O  O14  1  0.88165600  0.73444800  0.14737500  1
  O  O15  1  0.38697900  0.74023900  0.64759100  1
  O  O16  1  0.38699200  0.26551400  0.12147100  1
  O  O17  1  0.88769000  0.26653000  0.62078900  1
  O  O18  1  0.84839700  0.26516300  0.12168300  1
  O  O19  1  0.34923800  0.26575200  0.62023900  1
  O  O20  1  0.38693600  0.72658800  0.12171800  1
  O  O21  1  0.88603200  0.72893600  0.62022500  1
  O  O22  1  0.65069600  0.73541300  0.37797700  1
  O  O23  1  0.15081100  0.73379100  0.87978400  1
  O  O24  1  0.11332900  0.27280800  0.37793900  1
  O  O25  1  0.61353000  0.27107900  0.87979900  1
  O  O26  1  0.11326100  0.73484500  0.37845400  1
  O  O27  1  0.61263200  0.73391400  0.87908300  1
