# generated using pymatgen
data_Mn2TcO4
_symmetry_space_group_name_H-M   'P 1'
_cell_length_a   6.28379148
_cell_length_b   6.28379148
_cell_length_c   6.28379148
_cell_angle_alpha   120.78122167
_cell_angle_beta   120.26728307
_cell_angle_gamma   89.09492706
_symmetry_Int_Tables_number   1
_chemical_formula_structural   Mn2TcO4
_chemical_formula_sum   'Mn4 Tc2 O8'
_cell_volume   174.03048173
_cell_formula_units_Z   2
loop_
 _symmetry_equiv_pos_site_id
 _symmetry_equiv_pos_as_xyz
  1  'x, y, z'
loop_
 _atom_site_type_symbol
 _atom_site_label
 _atom_site_symmetry_multiplicity
 _atom_site_fract_x
 _atom_site_fract_y
 _atom_site_fract_z
 _atom_site_occupancy
  Mn  Mn0  1  0.88864600  0.13864600  0.75000000  1
  Mn  Mn1  1  0.11135400  0.86135400  0.25000000  1
  Mn  Mn2  1  0.50000000  0.50000000  0.50000000  1
  Mn  Mn3  1  0.50000000  0.00000000  0.00000000  1
  Tc  Tc4  1  0.50000000  0.50000000  0.00000000  1
  Tc  Tc5  1  0.00000000  0.50000000  0.50000000  1
  O  O6  1  0.24592900  0.27563100  0.52970200  1
  O  O7  1  0.24592900  0.71622600  0.97029800  1
  O  O8  1  0.71131400  0.72698700  0.98432700  1
  O  O9  1  0.24266000  0.72698700  0.51567300  1
  O  O10  1  0.75734000  0.27301300  0.48432700  1
  O  O11  1  0.28868600  0.27301300  0.01567300  1
  O  O12  1  0.75407100  0.28377400  0.02970200  1
  O  O13  1  0.75407100  0.72436900  0.47029800  1
