# generated using pymatgen
data_NaCoP2HO7
_symmetry_space_group_name_H-M   'P 1'
_cell_length_a   6.68756582
_cell_length_b   9.39429333
_cell_length_c   9.22368860
_cell_angle_alpha   89.35284609
_cell_angle_beta   101.33818584
_cell_angle_gamma   70.55055645
_symmetry_Int_Tables_number   1
_chemical_formula_structural   NaCoP2HO7
_chemical_formula_sum   'Na4 Co4 P8 H4 O28'
_cell_volume   533.89688738
_cell_formula_units_Z   4
loop_
 _symmetry_equiv_pos_site_id
 _symmetry_equiv_pos_as_xyz
  1  'x, y, z'
loop_
 _atom_site_type_symbol
 _atom_site_label
 _atom_site_symmetry_multiplicity
 _atom_site_fract_x
 _atom_site_fract_y
 _atom_site_fract_z
 _atom_site_occupancy
  Na  Na0  1  0.75273000  0.17746100  0.94432700  1
  Na  Na1  1  0.75289600  0.67866300  0.44364800  1
  Na  Na2  1  0.24681200  0.82107400  0.05649400  1
  Na  Na3  1  0.24713300  0.32105500  0.55594200  1
  Co  Co4  1  0.11161900  0.96544100  0.68138600  1
  Co  Co5  1  0.88792900  0.03432600  0.32027900  1
  Co  Co6  1  0.11191700  0.46506800  0.17957400  1
  Co  Co7  1  0.88702000  0.53474100  0.82021900  1
  P  P8  1  0.21779800  0.19954400  0.94605500  1
  P  P9  1  0.21758200  0.69875500  0.44591600  1
  P  P10  1  0.78236000  0.80136500  0.05330400  1
  P  P11  1  0.78333500  0.30087800  0.55404000  1
  P  P12  1  0.63707100  0.39386900  0.22661100  1
  P  P13  1  0.63728500  0.89370700  0.72592800  1
  P  P14  1  0.36255900  0.60622300  0.77344100  1
  P  P15  1  0.36343700  0.10572000  0.27357100  1
  H  H16  1  0.30985700  0.37285800  0.82506400  1
  H  H17  1  0.31041200  0.87178800  0.32541100  1
  H  H18  1  0.68866500  0.63007800  0.17360800  1
  H  H19  1  0.68964300  0.13017800  0.67431100  1
  O  O20  1  0.37742500  0.11525900  0.09933300  1
  O  O21  1  0.37743700  0.61547100  0.59956600  1
  O  O22  1  0.62202100  0.88447400  0.90025600  1
  O  O23  1  0.62312500  0.38429300  0.40102200  1
  O  O24  1  0.11147200  0.58806000  0.37677500  1
  O  O25  1  0.11004400  0.08986100  0.87627200  1
  O  O26  1  0.88906300  0.41128500  0.62397500  1
  O  O27  1  0.88800900  0.91203500  0.12289000  1
  O  O28  1  0.75653300  0.23477000  0.18885700  1
  O  O29  1  0.75678500  0.73447300  0.68861200  1
  O  O30  1  0.24214700  0.76493900  0.81130200  1
  O  O31  1  0.24394900  0.26435700  0.31154100  1
  O  O32  1  0.05092500  0.34690800  0.98150600  1
  O  O33  1  0.05051200  0.84590100  0.48085100  1
  O  O34  1  0.94973700  0.65441600  0.01860200  1
  O  O35  1  0.95063400  0.15385600  0.51927900  1
  O  O36  1  0.40486300  0.46946600  0.14382300  1
  O  O37  1  0.40556000  0.96969900  0.64312200  1
  O  O38  1  0.59394100  0.53069000  0.85734800  1
  O  O39  1  0.59514800  0.02946600  0.35670000  1
  O  O40  1  0.36989600  0.23678700  0.85637600  1
  O  O41  1  0.36970100  0.73610400  0.35617100  1
  O  O42  1  0.63070400  0.76333600  0.14349500  1
  O  O43  1  0.63140000  0.26277000  0.64397700  1
  O  O44  1  0.77705100  0.49684400  0.21794800  1
  O  O45  1  0.77860600  0.99608300  0.71843200  1
  O  O46  1  0.22222600  0.50301600  0.78137500  1
  O  O47  1  0.22302800  0.00258700  0.28146200  1
