# generated using pymatgen
data_Mn2CuO4
_symmetry_space_group_name_H-M   'P 1'
_cell_length_a   6.02316798
_cell_length_b   6.02316757
_cell_length_c   6.02316755
_cell_angle_alpha   119.99999534
_cell_angle_beta   120.00000220
_cell_angle_gamma   90.00000000
_symmetry_Int_Tables_number   1
_chemical_formula_structural   Mn2CuO4
_chemical_formula_sum   'Mn4 Cu2 O8'
_cell_volume   154.51117106
_cell_formula_units_Z   2
loop_
 _symmetry_equiv_pos_site_id
 _symmetry_equiv_pos_as_xyz
  1  'x, y, z'
loop_
 _atom_site_type_symbol
 _atom_site_label
 _atom_site_symmetry_multiplicity
 _atom_site_fract_x
 _atom_site_fract_y
 _atom_site_fract_z
 _atom_site_occupancy
  Mn  Mn0  1  0.00000000  0.50000000  0.00000000  1
  Mn  Mn1  1  0.00000000  0.50000100  0.50000100  1
  Mn  Mn2  1  0.00000000  0.00000100  0.50000100  1
  Mn  Mn3  1  0.49999900  0.50000000  0.00000000  1
  Cu  Cu4  1  0.62500000  0.87500000  0.74999900  1
  Cu  Cu5  1  0.37499900  0.12500000  0.24999900  1
  O  O6  1  0.21696400  0.73898800  0.47797600  1
  O  O7  1  0.23898900  0.71696500  0.97797800  1
  O  O8  1  0.23898900  0.26101200  0.52202400  1
  O  O9  1  0.23898800  0.26101200  0.97797700  1
  O  O10  1  0.76101200  0.73898700  0.47797600  1
  O  O11  1  0.76101200  0.73898800  0.02202400  1
  O  O12  1  0.78303600  0.26101200  0.52202500  1
  O  O13  1  0.76101100  0.28303500  0.02202300  1
