# generated using pymatgen
data_TiSCl6O
_symmetry_space_group_name_H-M   'P 1'
_cell_length_a   6.63209562
_cell_length_b   8.18878032
_cell_length_c   11.22515059
_cell_angle_alpha   108.50382994
_cell_angle_beta   91.38155619
_cell_angle_gamma   113.71642751
_symmetry_Int_Tables_number   1
_chemical_formula_structural   TiSCl6O
_chemical_formula_sum   'Ti2 S2 Cl12 O2'
_cell_volume   521.13695456
_cell_formula_units_Z   2
loop_
 _symmetry_equiv_pos_site_id
 _symmetry_equiv_pos_as_xyz
  1  'x, y, z'
loop_
 _atom_site_type_symbol
 _atom_site_label
 _atom_site_symmetry_multiplicity
 _atom_site_fract_x
 _atom_site_fract_y
 _atom_site_fract_z
 _atom_site_occupancy
  Ti  Ti0  1  0.93041950  0.76716507  0.85758681  1
  Ti  Ti1  1  0.06958050  0.23283493  0.14241319  1
  S  S2  1  0.35452951  0.02355803  0.29993330  1
  S  S3  1  0.64547049  0.97644197  0.70006670  1
  Cl  Cl4  1  0.61226100  0.50131392  0.80763074  1
  Cl  Cl5  1  0.06075892  0.82617483  0.32686646  1
  Cl  Cl6  1  0.45321934  0.22903422  0.48341496  1
  Cl  Cl7  1  0.80526964  0.89093978  0.06008309  1
  Cl  Cl8  1  0.54678066  0.77096578  0.51658504  1
  Cl  Cl9  1  0.96582329  0.26544939  0.33315260  1
  Cl  Cl10  1  0.38773900  0.49868608  0.19236926  1
  Cl  Cl11  1  0.03417671  0.73455061  0.66684740  1
  Cl  Cl12  1  0.19473036  0.10906022  0.93991691  1
  Cl  Cl13  1  0.84223407  0.31934456  0.06109646  1
  Cl  Cl14  1  0.93924108  0.17382517  0.67313354  1
  Cl  Cl15  1  0.15776593  0.68065544  0.93890354  1
  O  O16  1  0.70360307  0.89479350  0.78677118  1
  O  O17  1  0.29639693  0.10520650  0.21322882  1
