# generated using pymatgen
data_NaCuPO4
_symmetry_space_group_name_H-M   'P 1'
_cell_length_a   5.08101039
_cell_length_b   7.08611714
_cell_length_c   8.99995500
_cell_angle_alpha   90.00000000
_cell_angle_beta   90.00000000
_cell_angle_gamma   98.49217491
_symmetry_Int_Tables_number   1
_chemical_formula_structural   NaCuPO4
_chemical_formula_sum   'Na4 Cu4 P4 O16'
_cell_volume   320.48733053
_cell_formula_units_Z   4
loop_
 _symmetry_equiv_pos_site_id
 _symmetry_equiv_pos_as_xyz
  1  'x, y, z'
loop_
 _atom_site_type_symbol
 _atom_site_label
 _atom_site_symmetry_multiplicity
 _atom_site_fract_x
 _atom_site_fract_y
 _atom_site_fract_z
 _atom_site_occupancy
  Na  Na0  1  0.95400700  0.30340200  0.64422200  1
  Na  Na1  1  0.45400700  0.80340200  0.85577800  1
  Na  Na2  1  0.54599300  0.19659800  0.14422200  1
  Na  Na3  1  0.04599300  0.69659800  0.35577800  1
  Cu  Cu4  1  0.00000000  0.50000000  0.00000000  1
  Cu  Cu5  1  0.50000000  0.50000000  0.50000000  1
  Cu  Cu6  1  0.00000000  0.00000000  0.00000000  1
  Cu  Cu7  1  0.50000000  0.00000000  0.50000000  1
  P  P8  1  0.95032900  0.80239000  0.67506000  1
  P  P9  1  0.54967100  0.69761000  0.17506000  1
  P  P10  1  0.04967100  0.19761000  0.32494000  1
  P  P11  1  0.45032900  0.30239000  0.82494000  1
  O  O12  1  0.79965100  0.96918700  0.63424700  1
  O  O13  1  0.20034900  0.03081300  0.36575300  1
  O  O14  1  0.70034900  0.53081300  0.13424700  1
  O  O15  1  0.24489300  0.82497600  0.62308000  1
  O  O16  1  0.18174500  0.38987300  0.39450500  1
  O  O17  1  0.29965100  0.46918700  0.86575300  1
  O  O18  1  0.81825500  0.61012700  0.60549500  1
  O  O19  1  0.25510700  0.67502400  0.12308000  1
  O  O20  1  0.75510700  0.17502400  0.37692000  1
  O  O21  1  0.43981600  0.28544400  0.65069000  1
  O  O22  1  0.74489300  0.32497600  0.87692000  1
  O  O23  1  0.93981600  0.78544400  0.84931000  1
  O  O24  1  0.68174500  0.88987300  0.10549500  1
  O  O25  1  0.31825500  0.11012700  0.89450500  1
  O  O26  1  0.06018400  0.21455600  0.15069000  1
  O  O27  1  0.56018400  0.71455600  0.34931000  1
