# generated using pymatgen
data_BaCu(SiO3)2
_symmetry_space_group_name_H-M   'P 1'
_cell_length_a   7.18636797
_cell_length_b   7.18636818
_cell_length_c   7.55834024
_cell_angle_alpha   118.38385401
_cell_angle_beta   118.38495880
_cell_angle_gamma   89.99999787
_symmetry_Int_Tables_number   1
_chemical_formula_structural   BaCu(SiO3)2
_chemical_formula_sum   'Ba2 Cu2 Si4 O12'
_cell_volume   288.96351542
_cell_formula_units_Z   2
loop_
 _symmetry_equiv_pos_site_id
 _symmetry_equiv_pos_as_xyz
  1  'x, y, z'
loop_
 _atom_site_type_symbol
 _atom_site_label
 _atom_site_symmetry_multiplicity
 _atom_site_fract_x
 _atom_site_fract_y
 _atom_site_fract_z
 _atom_site_occupancy
  Ba  Ba0  1  0.74999918  0.24999248  0.49999836  1
  Ba  Ba1  1  0.25000119  0.74999929  0.50000237  1
  Cu  Cu2  1  0.12106869  0.12106444  0.24213738  1
  Si  Si3  1  0.27392191  0.72607546  0.99999756  1
  Si  Si4  1  0.27392383  0.27392375  1.00000257  1
  Si  Si5  1  0.72607874  0.27392375  1.00000257  1
  Si  Si6  1  0.72607565  0.72607546  0.99999756  1
  Cu  Cu7  1  0.87892922  0.87893374  0.75785843  1
  O  O8  1  0.23786561  0.50257425  0.00514448  1
  O  O9  1  0.06639154  0.68139096  0.74996491  1
  O  O10  1  0.06639951  0.06859903  0.74997754  1
  O  O11  1  0.49743023  0.23272329  0.99486046  1
  O  O12  1  0.93141841  0.31642088  0.25003958  1
  O  O13  1  0.76727887  0.50257425  0.00514448  1
  O  O14  1  0.49742692  0.76213729  0.99485383  1
  O  O15  1  0.68357803  0.06859903  0.74997754  1
  O  O16  1  0.31862116  0.31642088  0.25003958  1
  O  O17  1  0.93140980  0.93359041  0.25001794  1
  O  O18  1  0.31860814  0.93359041  0.25001794  1
  O  O19  1  0.68357336  0.68139096  0.74996491  1
