# generated using pymatgen
data_MnCdF5
_symmetry_space_group_name_H-M   'P 1'
_cell_length_a   5.57315489
_cell_length_b   5.57315489
_cell_length_c   8.01596249
_cell_angle_alpha   68.58179329
_cell_angle_beta   68.58179329
_cell_angle_gamma   70.29974397
_symmetry_Int_Tables_number   1
_chemical_formula_structural   MnCdF5
_chemical_formula_sum   'Mn2 Cd2 F10'
_cell_volume   209.72712604
_cell_formula_units_Z   2
loop_
 _symmetry_equiv_pos_site_id
 _symmetry_equiv_pos_as_xyz
  1  'x, y, z'
loop_
 _atom_site_type_symbol
 _atom_site_label
 _atom_site_symmetry_multiplicity
 _atom_site_fract_x
 _atom_site_fract_y
 _atom_site_fract_z
 _atom_site_occupancy
  Mn  Mn0  1  0.00000000  0.00000000  0.50000000  1
  Mn  Mn1  1  0.00000000  0.00000000  0.00000000  1
  Cd  Cd2  1  0.45684400  0.54315600  0.25000000  1
  Cd  Cd3  1  0.54315600  0.45684400  0.75000000  1
  F  F4  1  0.10117600  0.89882400  0.25000000  1
  F  F5  1  0.89882400  0.10117600  0.75000000  1
  F  F6  1  0.20786000  0.24842700  0.37958500  1
  F  F7  1  0.75157300  0.79214000  0.12041500  1
  F  F8  1  0.71656700  0.31127400  0.03342000  1
  F  F9  1  0.68872600  0.28343300  0.46658000  1
  F  F10  1  0.28343300  0.68872600  0.96658000  1
  F  F11  1  0.31127400  0.71656700  0.53342000  1
  F  F12  1  0.24842700  0.20786000  0.87958500  1
  F  F13  1  0.79214000  0.75157300  0.62041500  1
