# generated using pymatgen
data_Ag2P2PbO7
_symmetry_space_group_name_H-M   'P 1'
_cell_length_a   5.50616303
_cell_length_b   7.10518171
_cell_length_c   10.42408391
_cell_angle_alpha   107.91683852
_cell_angle_beta   93.26550110
_cell_angle_gamma   111.31539695
_symmetry_Int_Tables_number   1
_chemical_formula_structural   Ag2P2PbO7
_chemical_formula_sum   'Ag4 P4 Pb2 O14'
_cell_volume   354.87831247
_cell_formula_units_Z   2
loop_
 _symmetry_equiv_pos_site_id
 _symmetry_equiv_pos_as_xyz
  1  'x, y, z'
loop_
 _atom_site_type_symbol
 _atom_site_label
 _atom_site_symmetry_multiplicity
 _atom_site_fract_x
 _atom_site_fract_y
 _atom_site_fract_z
 _atom_site_occupancy
  Ag  Ag0  1  0.66317271  0.89599761  0.19368188  1
  Ag  Ag1  1  0.90826328  0.22989683  0.97305111  1
  Ag  Ag2  1  0.09173672  0.77010317  0.02694889  1
  Ag  Ag3  1  0.33682729  0.10400239  0.80631812  1
  P  P4  1  0.49052345  0.36489093  0.16339924  1
  P  P5  1  0.50947655  0.63510907  0.83660076  1
  P  P6  1  0.72989716  0.84729638  0.63823037  1
  P  P7  1  0.27010284  0.15270362  0.36176963  1
  Pb  Pb8  1  0.85672503  0.36722069  0.63097477  1
  Pb  Pb9  1  0.14327497  0.63277931  0.36902523  1
  O  O10  1  0.78115142  0.08373042  0.72742689  1
  O  O11  1  0.69221717  0.83947414  0.95571924  1
  O  O12  1  0.02640744  0.20538629  0.34086647  1
  O  O13  1  0.21670192  0.54850175  0.85115155  1
  O  O14  1  0.21884858  0.91626958  0.27257311  1
  O  O15  1  0.61949631  0.45700758  0.80677070  1
  O  O16  1  0.38050369  0.54299242  0.19322930  1
  O  O17  1  0.49564782  0.69526158  0.69746643  1
  O  O18  1  0.50435218  0.30473842  0.30253357  1
  O  O19  1  0.61296558  0.79195669  0.48942554  1
  O  O20  1  0.38703442  0.20804331  0.51057446  1
  O  O21  1  0.97359256  0.79461371  0.65913353  1
  O  O22  1  0.78329808  0.45149825  0.14884845  1
  O  O23  1  0.30778283  0.16052586  0.04428076  1
