# generated using pymatgen
data_CuGeO3
_symmetry_space_group_name_H-M   'P 1'
_cell_length_a   8.76871000
_cell_length_b   9.93576800
_cell_length_c   11.92274000
_cell_angle_alpha   90.00000000
_cell_angle_beta   90.00000000
_cell_angle_gamma   90.00000000
_symmetry_Int_Tables_number   1
_chemical_formula_structural   CuGeO3
_chemical_formula_sum   'Cu16 Ge16 O48'
_cell_volume   1038.75522857
_cell_formula_units_Z   16
loop_
 _symmetry_equiv_pos_site_id
 _symmetry_equiv_pos_as_xyz
  1  'x, y, z'
loop_
 _atom_site_type_symbol
 _atom_site_label
 _atom_site_symmetry_multiplicity
 _atom_site_fract_x
 _atom_site_fract_y
 _atom_site_fract_z
 _atom_site_occupancy
  Cu  Cu0  1  0.50000000  0.50000000  0.74728000  1
  Cu  Cu1  1  0.50000000  0.00000000  0.00000000  1
  Cu  Cu2  1  0.50000000  0.50000000  0.50000000  1
  Cu  Cu3  1  0.00000000  0.50000000  0.24735800  1
  Cu  Cu4  1  0.50000000  0.00000000  0.24735800  1
  Cu  Cu5  1  0.00000000  0.00000000  0.00000000  1
  Cu  Cu6  1  0.50000000  0.00000000  0.50000000  1
  Cu  Cu7  1  0.50000000  0.50000000  0.25272000  1
  Cu  Cu8  1  0.00000000  0.00000000  0.25272000  1
  Cu  Cu9  1  0.00000000  0.00000000  0.74728000  1
  Cu  Cu10  1  0.50000000  0.00000000  0.75264200  1
  Cu  Cu11  1  0.50000000  0.50000000  0.00000000  1
  Cu  Cu12  1  0.00000000  0.50000000  0.75264200  1
  Cu  Cu13  1  0.00000000  0.50000000  0.50000000  1
  Cu  Cu14  1  0.00000000  0.50000000  0.00000000  1
  Cu  Cu15  1  0.00000000  0.00000000  0.50000000  1
  Ge  Ge16  1  0.75044400  0.20298200  0.87489400  1
  Ge  Ge17  1  0.25122600  0.29715500  0.62512300  1
  Ge  Ge18  1  0.24955600  0.79701800  0.12510600  1
  Ge  Ge19  1  0.74955600  0.70298200  0.12510600  1
  Ge  Ge20  1  0.24877400  0.79715500  0.37487700  1
  Ge  Ge21  1  0.24877400  0.79715500  0.62512300  1
  Ge  Ge22  1  0.75044400  0.20298200  0.12510600  1
  Ge  Ge23  1  0.74877400  0.70284500  0.62512300  1
  Ge  Ge24  1  0.25044400  0.29701800  0.87489400  1
  Ge  Ge25  1  0.74877400  0.70284500  0.37487700  1
  Ge  Ge26  1  0.25044400  0.29701800  0.12510600  1
  Ge  Ge27  1  0.74955600  0.70298200  0.87489400  1
  Ge  Ge28  1  0.25122600  0.29715500  0.37487700  1
  Ge  Ge29  1  0.24955600  0.79701800  0.87489400  1
  Ge  Ge30  1  0.75122600  0.20284500  0.37487700  1
  Ge  Ge31  1  0.75122600  0.20284500  0.62512300  1
  O  O32  1  0.08046600  0.39357300  0.12427200  1
  O  O33  1  0.74813600  0.80409100  0.00000000  1
  O  O34  1  0.91488500  0.09944100  0.12595100  1
  O  O35  1  0.75037000  0.30450800  0.74996500  1
  O  O36  1  0.08908600  0.40336600  0.62596300  1
  O  O37  1  0.25116600  0.69614100  0.50000000  1
  O  O38  1  0.24883400  0.19614100  0.50000000  1
  O  O39  1  0.08908600  0.40336600  0.37403700  1
  O  O40  1  0.75116600  0.80385900  0.50000000  1
  O  O41  1  0.91953400  0.60642700  0.87572800  1
  O  O42  1  0.92322100  0.10879400  0.37574900  1
  O  O43  1  0.07677900  0.89120600  0.37574900  1
  O  O44  1  0.58908600  0.09663400  0.37403700  1
  O  O45  1  0.91953400  0.60642700  0.12427200  1
  O  O46  1  0.58046600  0.10642700  0.87572800  1
  O  O47  1  0.57677900  0.60879400  0.62425100  1
  O  O48  1  0.75037000  0.30450800  0.25003400  1
  O  O49  1  0.57677900  0.60879400  0.37574900  1
  O  O50  1  0.91488500  0.09944100  0.87404900  1
  O  O51  1  0.58511500  0.59944100  0.87404900  1
  O  O52  1  0.08511500  0.90055900  0.87404900  1
  O  O53  1  0.75186400  0.30409100  0.00000000  1
  O  O54  1  0.74883400  0.30385900  0.50000000  1
  O  O55  1  0.74963000  0.80450800  0.74996500  1
  O  O56  1  0.41953400  0.89357300  0.12427200  1
  O  O57  1  0.42322100  0.39120600  0.37574900  1
  O  O58  1  0.74963000  0.80450800  0.25003400  1
  O  O59  1  0.25186400  0.19590900  0.00000000  1
  O  O60  1  0.25037000  0.19549200  0.25003400  1
  O  O61  1  0.92322100  0.10879400  0.62425100  1
  O  O62  1  0.41953400  0.89357300  0.87572800  1
  O  O63  1  0.24963000  0.69549200  0.74996500  1
  O  O64  1  0.58908600  0.09663400  0.62596300  1
  O  O65  1  0.08511500  0.90055900  0.12595100  1
  O  O66  1  0.91091400  0.59663400  0.62596300  1
  O  O67  1  0.41091400  0.90336600  0.37403700  1
  O  O68  1  0.41488500  0.40055900  0.87404900  1
  O  O69  1  0.08046600  0.39357300  0.87572800  1
  O  O70  1  0.24813600  0.69590900  0.00000000  1
  O  O71  1  0.58046600  0.10642700  0.12427200  1
  O  O72  1  0.91091400  0.59663400  0.37403700  1
  O  O73  1  0.07677900  0.89120600  0.62425100  1
  O  O74  1  0.25037000  0.19549200  0.74996500  1
  O  O75  1  0.41091400  0.90336600  0.62596300  1
  O  O76  1  0.42322100  0.39120600  0.62425100  1
  O  O77  1  0.58511500  0.59944100  0.12595100  1
  O  O78  1  0.24963000  0.69549200  0.25003400  1
  O  O79  1  0.41488500  0.40055900  0.12595100  1
