# generated using pymatgen
data_Fe2BO4
_symmetry_space_group_name_H-M   'P 1'
_cell_length_a   9.53457100
_cell_length_b   6.46005700
_cell_length_c   9.39016365
_cell_angle_alpha   89.71686866
_cell_angle_beta   90.00000000
_cell_angle_gamma   90.00000000
_symmetry_Int_Tables_number   1
_chemical_formula_structural   Fe2BO4
_chemical_formula_sum   'Fe16 B8 O32'
_cell_volume   578.36947741
_cell_formula_units_Z   8
loop_
 _symmetry_equiv_pos_site_id
 _symmetry_equiv_pos_as_xyz
  1  'x, y, z'
loop_
 _atom_site_type_symbol
 _atom_site_label
 _atom_site_symmetry_multiplicity
 _atom_site_fract_x
 _atom_site_fract_y
 _atom_site_fract_z
 _atom_site_occupancy
  Fe  Fe0  1  0.55316300  0.33356900  0.49128700  1
  Fe  Fe1  1  0.44683700  0.33356900  0.99128700  1
  Fe  Fe2  1  0.31582100  0.58395700  0.26942300  1
  Fe  Fe3  1  0.68417900  0.58395700  0.76942300  1
  Fe  Fe4  1  0.18392000  0.83211500  0.50504500  1
  Fe  Fe5  1  0.81608000  0.83211500  0.00504500  1
  Fe  Fe6  1  0.05532300  0.08463900  0.78604500  1
  Fe  Fe7  1  0.94467700  0.08463900  0.28604500  1
  Fe  Fe8  1  0.43941900  0.83426200  0.99404200  1
  Fe  Fe9  1  0.56058100  0.83426200  0.49404200  1
  Fe  Fe10  1  0.31939500  0.08642500  0.27553200  1
  Fe  Fe11  1  0.68060500  0.08642500  0.77553200  1
  Fe  Fe12  1  0.18042800  0.33735900  0.51035000  1
  Fe  Fe13  1  0.81957200  0.33735900  0.01035000  1
  Fe  Fe14  1  0.05879200  0.58512600  0.78808800  1
  Fe  Fe15  1  0.94120800  0.58512600  0.28808800  1
  B  B16  1  0.87404900  0.85108100  0.55482100  1
  B  B17  1  0.12595100  0.85108100  0.05482100  1
  B  B18  1  0.87234400  0.31633700  0.55572500  1
  B  B19  1  0.12765600  0.31633700  0.05572500  1
  B  B20  1  0.62691000  0.09139100  0.22685800  1
  B  B21  1  0.37309000  0.09139100  0.72685800  1
  B  B22  1  0.62597400  0.57852500  0.22327200  1
  B  B23  1  0.37402600  0.57852500  0.72327200  1
  O  O24  1  0.50176100  0.09707800  0.14833000  1
  O  O25  1  0.49823900  0.09707800  0.64833000  1
  O  O26  1  0.61922500  0.56819000  0.36959900  1
  O  O27  1  0.38077500  0.56819000  0.86959900  1
  O  O28  1  0.37168300  0.32114800  0.39895500  1
  O  O29  1  0.62831700  0.32114800  0.89895500  1
  O  O30  1  0.25473100  0.84912800  0.12416500  1
  O  O31  1  0.74526900  0.84912800  0.62416500  1
  O  O32  1  0.24358600  0.59986400  0.65742400  1
  O  O33  1  0.75641400  0.59986400  0.15742400  1
  O  O34  1  0.13307200  0.07293400  0.37561300  1
  O  O35  1  0.86692800  0.07293400  0.87561300  1
  O  O36  1  0.12059400  0.85236500  0.90871400  1
  O  O37  1  0.87940600  0.85236500  0.40871400  1
  O  O38  1  0.99305800  0.31431600  0.64004500  1
  O  O39  1  0.00694200  0.31431600  0.14004500  1
  O  O40  1  0.50265500  0.56771500  0.14204200  1
  O  O41  1  0.49734500  0.56771500  0.64204200  1
  O  O42  1  0.62060200  0.10030300  0.37216300  1
  O  O43  1  0.37939800  0.10030300  0.87216300  1
  O  O44  1  0.36615900  0.84868900  0.40317900  1
  O  O45  1  0.63384100  0.84868900  0.90317900  1
  O  O46  1  0.25996400  0.31831200  0.11973900  1
  O  O47  1  0.74003600  0.31831200  0.61973900  1
  O  O48  1  0.24270600  0.07716000  0.65874800  1
  O  O49  1  0.75729400  0.07716000  0.15874800  1
  O  O50  1  0.13128000  0.59562700  0.38611000  1
  O  O51  1  0.86872000  0.59562700  0.88611000  1
  O  O52  1  0.11607700  0.31657200  0.90959900  1
  O  O53  1  0.88392300  0.31657200  0.40959900  1
  O  O54  1  0.00106200  0.85293300  0.63171700  1
  O  O55  1  0.99893800  0.85293300  0.13171700  1
