# generated using pymatgen
data_Fe4Si2Sn7O16
_symmetry_space_group_name_H-M   'P 1'
_cell_length_a   6.94034702
_cell_length_b   11.68968793
_cell_length_c   11.69066350
_cell_angle_alpha   72.84998513
_cell_angle_beta   107.27678425
_cell_angle_gamma   72.73415128
_symmetry_Int_Tables_number   1
_chemical_formula_structural   Fe4Si2Sn7O16
_chemical_formula_sum   'Fe8 Si4 Sn14 O32'
_cell_volume   784.86530715
_cell_formula_units_Z   2
loop_
 _symmetry_equiv_pos_site_id
 _symmetry_equiv_pos_as_xyz
  1  'x, y, z'
loop_
 _atom_site_type_symbol
 _atom_site_label
 _atom_site_symmetry_multiplicity
 _atom_site_fract_x
 _atom_site_fract_y
 _atom_site_fract_z
 _atom_site_occupancy
  Fe  Fe0  1  0.50009900  0.75000600  0.74999300  1
  Fe  Fe1  1  0.49990700  0.24999900  0.25002700  1
  Fe  Fe2  1  0.49992100  0.49994900  0.00009100  1
  Fe  Fe3  1  0.50010500  0.00005400  0.49990400  1
  Fe  Fe4  1  0.00008600  0.49999100  0.00002600  1
  Fe  Fe5  1  0.00001600  0.99999700  0.49997000  1
  Fe  Fe6  1  0.00005500  0.49995400  0.49997300  1
  Fe  Fe7  1  0.99988600  0.99998400  0.00010600  1
  Si  Si8  1  0.66663200  0.45185200  0.78527700  1
  Si  Si9  1  0.66654700  0.95192600  0.28524100  1
  Si  Si10  1  0.33332200  0.54817300  0.21473800  1
  Si  Si11  1  0.33350000  0.04805000  0.71474800  1
  Sn  Sn12  1  0.99989800  0.25000200  0.24996300  1
  Sn  Sn13  1  0.00004500  0.75000800  0.75001600  1
  Sn  Sn14  1  0.83429600  0.58310100  0.25164500  1
  Sn  Sn15  1  0.83448200  0.08306800  0.75164100  1
  Sn  Sn16  1  0.33135800  0.83460100  0.00014800  1
  Sn  Sn17  1  0.33136600  0.33450200  0.50023200  1
  Sn  Sn18  1  0.83422000  0.83465000  0.00017500  1
  Sn  Sn19  1  0.83410700  0.33466600  0.50007600  1
  Sn  Sn20  1  0.16580400  0.16535500  0.99987500  1
  Sn  Sn21  1  0.16592400  0.66530800  0.49991000  1
  Sn  Sn22  1  0.66859300  0.16543800  0.99980900  1
  Sn  Sn23  1  0.66865600  0.66549000  0.49978200  1
  Sn  Sn24  1  0.16564300  0.41691200  0.74834200  1
  Sn  Sn25  1  0.16560100  0.91691000  0.24837700  1
  O  O26  1  0.66671900  0.76831000  0.10158900  1
  O  O27  1  0.66668600  0.26831600  0.60157300  1
  O  O28  1  0.33331700  0.23167100  0.89840900  1
  O  O29  1  0.33329000  0.73172900  0.39839900  1
  O  O30  1  0.33339500  0.45940700  0.12578400  1
  O  O31  1  0.33380800  0.95906500  0.62604600  1
  O  O32  1  0.66648900  0.54062700  0.87420400  1
  O  O33  1  0.66630400  0.04090800  0.37396100  1
  O  O34  1  0.53725100  0.55542000  0.62970200  1
  O  O35  1  0.53717900  0.05538500  0.12965900  1
  O  O36  1  0.92585200  0.36112400  0.82419200  1
  O  O37  1  0.92584700  0.86122400  0.32437900  1
  O  O38  1  0.46277600  0.44447400  0.37024300  1
  O  O39  1  0.46277000  0.94472300  0.87039000  1
  O  O40  1  0.53699900  0.36104300  0.82391700  1
  O  O41  1  0.53690200  0.86120100  0.32397700  1
  O  O42  1  0.46298700  0.63894300  0.17610600  1
  O  O43  1  0.46310800  0.13881300  0.67599700  1
  O  O44  1  0.07416300  0.63890000  0.17587100  1
  O  O45  1  0.07413600  0.13874500  0.67556400  1
  O  O46  1  0.69085900  0.27095300  0.11629800  1
  O  O47  1  0.69101100  0.77100000  0.61632300  1
  O  O48  1  0.84558900  0.46086900  0.15183800  1
  O  O49  1  0.84603000  0.96076000  0.65187800  1
  O  O50  1  0.15435300  0.53916600  0.84814600  1
  O  O51  1  0.15401500  0.03920600  0.34810700  1
  O  O52  1  0.15437600  0.27077600  0.11647900  1
  O  O53  1  0.15479700  0.77065000  0.61661000  1
  O  O54  1  0.30918100  0.72903100  0.88367300  1
  O  O55  1  0.30891900  0.22902300  0.38368200  1
  O  O56  1  0.84562700  0.72926100  0.88354000  1
  O  O57  1  0.84520000  0.22933500  0.38337600  1
