# generated using pymatgen
data_V2Ni(PO5)2
_symmetry_space_group_name_H-M   'P 1'
_cell_length_a   7.40567900
_cell_length_b   7.35972519
_cell_length_c   7.41322278
_cell_angle_alpha   120.03530831
_cell_angle_beta   90.00068093
_cell_angle_gamma   89.99960087
_symmetry_Int_Tables_number   1
_chemical_formula_structural   V2Ni(PO5)2
_chemical_formula_sum   'V4 Ni2 P4 O20'
_cell_volume   349.79173030
_cell_formula_units_Z   2
loop_
 _symmetry_equiv_pos_site_id
 _symmetry_equiv_pos_as_xyz
  1  'x, y, z'
loop_
 _atom_site_type_symbol
 _atom_site_label
 _atom_site_symmetry_multiplicity
 _atom_site_fract_x
 _atom_site_fract_y
 _atom_site_fract_z
 _atom_site_occupancy
  V  V0  1  0.77494200  0.20386800  0.46410100  1
  V  V1  1  0.72509300  0.70394600  0.96419400  1
  V  V2  1  0.27505700  0.29606800  0.03591000  1
  V  V3  1  0.22494700  0.79599300  0.53582700  1
  Ni  Ni4  1  0.00026700  0.99999600  0.99971200  1
  Ni  Ni5  1  0.49974400  0.50002200  0.49977700  1
  P  P6  1  0.62292900  0.00151200  0.74985900  1
  P  P7  1  0.87704800  0.50150000  0.24984300  1
  P  P8  1  0.12287800  0.49842800  0.75015200  1
  P  P9  1  0.37713200  0.99843100  0.25013900  1
  O  O10  1  0.24959200  0.58799400  0.64518400  1
  O  O11  1  0.74988900  0.91190300  0.85465600  1
  O  O12  1  0.75009600  0.41186900  0.35463700  1
  O  O13  1  0.25040500  0.08800000  0.14518600  1
  O  O14  1  0.99729100  0.68313700  0.90359500  1
  O  O15  1  0.50270700  0.18311600  0.40361000  1
  O  O16  1  0.49730000  0.81691500  0.59654700  1
  O  O17  1  0.00268700  0.31692400  0.09653500  1
  O  O18  1  0.49268900  0.81815800  0.08857500  1
  O  O19  1  0.99251700  0.68188900  0.41153600  1
  O  O20  1  0.50745600  0.18190200  0.91153600  1
  O  O21  1  0.00732200  0.31813500  0.58860600  1
  O  O22  1  0.75343700  0.57591300  0.13421100  1
  O  O23  1  0.74654500  0.07592600  0.63422300  1
  O  O24  1  0.24665800  0.42421600  0.86580900  1
  O  O25  1  0.25335100  0.92417900  0.36575700  1
  O  O26  1  0.33832800  0.50315700  0.27264900  1
  O  O27  1  0.66177200  0.49686300  0.72748500  1
  O  O28  1  0.16166000  0.00317000  0.77264900  1
  O  O29  1  0.83826100  0.99687100  0.22750100  1
