# generated using pymatgen
data_Si4Ag10O13
_symmetry_space_group_name_H-M   'P 1'
_cell_length_a   8.11205484
_cell_length_b   9.38491756
_cell_length_c   11.60167664
_cell_angle_alpha   113.40783524
_cell_angle_beta   98.37314220
_cell_angle_gamma   100.57526474
_symmetry_Int_Tables_number   1
_chemical_formula_structural   Si4Ag10O13
_chemical_formula_sum   'Si8 Ag20 O26'
_cell_volume   773.05667833
_cell_formula_units_Z   2
loop_
 _symmetry_equiv_pos_site_id
 _symmetry_equiv_pos_as_xyz
  1  'x, y, z'
loop_
 _atom_site_type_symbol
 _atom_site_label
 _atom_site_symmetry_multiplicity
 _atom_site_fract_x
 _atom_site_fract_y
 _atom_site_fract_z
 _atom_site_occupancy
  Si  Si0  1  0.77886156  0.42073280  0.75542719  1
  Si  Si1  1  0.22113844  0.57926720  0.24457281  1
  Si  Si2  1  0.26795729  0.91941634  0.24502348  1
  Si  Si3  1  0.55730039  0.48444395  0.25032414  1
  Si  Si4  1  0.91665797  0.02361431  0.25132241  1
  Si  Si5  1  0.73204271  0.08058366  0.75497652  1
  Si  Si6  1  0.44269961  0.51555605  0.74967586  1
  Si  Si7  1  0.08334203  0.97638569  0.74867759  1
  Ag  Ag8  1  0.11075443  0.59376425  0.64163894  1
  Ag  Ag9  1  0.15912817  0.40923361  0.91663631  1
  Ag  Ag10  1  0.57662989  0.12407018  0.16101133  1
  Ag  Ag11  1  0.33406563  0.37151907  0.43272760  1
  Ag  Ag12  1  0.21382199  0.17127225  0.07014564  1
  Ag  Ag13  1  0.15082733  0.73145101  0.92860272  1
  Ag  Ag14  1  0.32019999  0.07898351  0.56951264  1
  Ag  Ag15  1  0.84917267  0.26854899  0.07139728  1
  Ag  Ag16  1  0.84087183  0.59076639  0.08336369  1
  Ag  Ag17  1  0.67980001  0.92101649  0.43048736  1
  Ag  Ag18  1  0.78617801  0.82872775  0.92985436  1
  Ag  Ag19  1  0.98599380  0.81836117  0.42905016  1
  Ag  Ag20  1  0.56093187  0.73177642  0.08398790  1
  Ag  Ag21  1  0.43906813  0.26822358  0.91601210  1
  Ag  Ag22  1  0.63293435  0.23719509  0.44799071  1
  Ag  Ag23  1  0.42337011  0.87592982  0.83898867  1
  Ag  Ag24  1  0.66593437  0.62848093  0.56727240  1
  Ag  Ag25  1  0.88924557  0.40623575  0.35836106  1
  Ag  Ag26  1  0.01400620  0.18163883  0.57094984  1
  Ag  Ag27  1  0.36706565  0.76280491  0.55200929  1
  O  O28  1  0.59473539  0.97652049  0.61322510  1
  O  O29  1  0.62004998  0.43217599  0.11444877  1
  O  O30  1  0.72455035  0.58195678  0.37707431  1
  O  O31  1  0.35635313  0.89357395  0.12341382  1
  O  O32  1  0.83066896  0.25935513  0.76345424  1
  O  O33  1  0.88385838  0.57923642  0.89020255  1
  O  O34  1  0.18583255  0.96867465  0.87932113  1
  O  O35  1  0.27544965  0.41804322  0.62292569  1
  O  O36  1  0.64364687  0.10642605  0.87658618  1
  O  O37  1  0.40526461  0.02347951  0.38677490  1
  O  O38  1  0.43332635  0.61108593  0.25489660  1
  O  O39  1  0.16933104  0.74064487  0.23654576  1
  O  O40  1  0.11614162  0.42076358  0.10979745  1
  O  O41  1  0.81416745  0.03132535  0.12067887  1
  O  O42  1  0.17464133  0.56663711  0.37313711  1
  O  O43  1  0.82535867  0.43336289  0.62686289  1
  O  O44  1  0.18342135  0.13834004  0.73465213  1
  O  O45  1  0.56173786  0.67638135  0.74388386  1
  O  O46  1  0.93356105  0.19001375  0.38038695  1
  O  O47  1  0.11286832  0.00867825  0.23175828  1
  O  O48  1  0.88713168  0.99132175  0.76824172  1
  O  O49  1  0.37995002  0.56782401  0.88555123  1
  O  O50  1  0.06643895  0.80998625  0.61961305  1
  O  O51  1  0.81657865  0.86165996  0.26534787  1
  O  O52  1  0.43826214  0.32361865  0.25611614  1
  O  O53  1  0.56667365  0.38891407  0.74510340  1
