# generated using pymatgen
data_NdPb7F17
_symmetry_space_group_name_H-M   'P 1'
_cell_length_a   4.19045317
_cell_length_b   4.22167922
_cell_length_c   34.02687889
_cell_angle_alpha   60.57155686
_cell_angle_beta   60.40101888
_cell_angle_gamma   60.31599505
_symmetry_Int_Tables_number   1
_chemical_formula_structural   NdPb7F17
_chemical_formula_sum   'Nd1 Pb7 F17'
_cell_volume   429.78007463
_cell_formula_units_Z   1
loop_
 _symmetry_equiv_pos_site_id
 _symmetry_equiv_pos_as_xyz
  1  'x, y, z'
loop_
 _atom_site_type_symbol
 _atom_site_label
 _atom_site_symmetry_multiplicity
 _atom_site_fract_x
 _atom_site_fract_y
 _atom_site_fract_z
 _atom_site_occupancy
  Nd  Nd0  1  0.96232766  0.99724681  0.88135856  1
  Pb  Pb1  1  0.99359614  0.98446958  0.00127868  1
  Pb  Pb2  1  0.92676897  0.03583579  0.12757633  1
  Pb  Pb3  1  0.95737541  0.01131526  0.25334850  1
  Pb  Pb4  1  0.98699444  0.99336289  0.50337701  1
  Pb  Pb5  1  0.98136282  0.99688344  0.37827967  1
  Pb  Pb6  1  0.98832850  0.99436401  0.62791596  1
  Pb  Pb7  1  0.98094814  0.99279419  0.75446420  1
  F  F8  1  0.18934786  0.29121232  0.03663833  1
  F  F9  1  0.20908285  0.25679020  0.28582680  1
  F  F10  1  0.68918666  0.78422276  0.09451281  1
  F  F11  1  0.17834398  0.27965392  0.15953801  1
  F  F12  1  0.23073779  0.24561510  0.41020468  1
  F  F13  1  0.70494425  0.76049950  0.22261226  1
  F  F14  1  0.23308165  0.24138898  0.53589198  1
  F  F15  1  0.73069834  0.74646923  0.34695486  1
  F  F16  1  0.23827249  0.24709207  0.65874680  1
  F  F17  1  0.73708387  0.74024048  0.47248036  1
  F  F18  1  0.20518627  0.22788042  0.79350121  1
  F  F19  1  0.74104955  0.74326820  0.59619481  1
  F  F20  1  0.72729154  0.73444647  0.72514868  1
  F  F21  1  0.28571859  0.35272176  0.88266038  1
  F  F22  1  0.74351250  0.77249188  0.84078213  1
  F  F23  1  0.47784168  0.63214576  0.92783485  1
  F  F24  1  0.71291908  0.82158799  0.96837114  1
