# generated using pymatgen
data_Zr2N2O
_symmetry_space_group_name_H-M   'P 1'
_cell_length_a   8.85519128
_cell_length_b   8.88862492
_cell_length_c   8.87788546
_cell_angle_alpha   109.42335598
_cell_angle_beta   109.42277912
_cell_angle_gamma   109.53828920
_symmetry_Int_Tables_number   1
_chemical_formula_structural   Zr2N2O
_chemical_formula_sum   'Zr16 N16 O8'
_cell_volume   538.11654212
_cell_formula_units_Z   8
loop_
 _symmetry_equiv_pos_site_id
 _symmetry_equiv_pos_as_xyz
  1  'x, y, z'
loop_
 _atom_site_type_symbol
 _atom_site_label
 _atom_site_symmetry_multiplicity
 _atom_site_fract_x
 _atom_site_fract_y
 _atom_site_fract_z
 _atom_site_occupancy
  Zr  Zr0  1  0.21785885  0.75940104  0.97042778  1
  Zr  Zr1  1  0.98843408  0.48988656  0.48157718  1
  Zr  Zr2  1  0.03140758  0.77922058  0.25210122  1
  Zr  Zr3  1  0.24371301  0.04025330  0.78027958  1
  Zr  Zr4  1  0.46572067  0.71625010  0.75716823  1
  Zr  Zr5  1  0.25216370  0.53274630  0.29244245  1
  Zr  Zr6  1  0.50821511  0.01859611  0.51047945  1
  Zr  Zr7  1  0.99779214  0.98719098  0.99016204  1
  Zr  Zr8  1  0.28301175  0.24892633  0.53515676  1
  Zr  Zr9  1  0.71675825  0.74835701  0.45948843  1
  Zr  Zr10  1  0.49642020  0.50609303  0.01060503  1
  Zr  Zr11  1  0.75553757  0.46782254  0.71633307  1
  Zr  Zr12  1  0.74281612  0.96168293  0.21058695  1
  Zr  Zr13  1  0.53652176  0.28732187  0.25843670  1
  Zr  Zr14  1  0.95947416  0.20415489  0.74005846  1
  Zr  Zr15  1  0.78505591  0.24640548  0.03296417  1
  N  N16  1  0.25766974  0.98136240  0.53129601  1
  N  N17  1  0.23002084  0.27505819  0.76203004  1
  N  N18  1  0.23149390  0.45666359  0.48956535  1
  N  N19  1  0.72688707  0.96451984  0.95014289  1
  N  N20  1  0.46351632  0.73532396  0.00803673  1
  N  N21  1  0.45187210  0.48754666  0.22478319  1
  N  N22  1  0.27379272  0.03055790  0.04283513  1
  N  N23  1  0.48707728  0.22831027  0.45710663  1
  N  N24  1  0.95500949  0.72786914  0.96861505  1
  N  N25  1  0.72922280  0.24078192  0.77399718  1
  N  N26  1  0.96732886  0.95804777  0.73091133  1
  N  N27  1  0.77809263  0.54860141  0.51616455  1
  N  N28  1  0.77322312  0.72777845  0.23796071  1
  N  N29  1  0.73858994  0.01204228  0.46739198  1
  N  N30  1  0.76103510  0.22870193  0.27293945  1
  N  N31  1  0.99082009  0.53171039  0.25869483  1
  O  O32  1  0.01425659  0.46897429  0.74016197  1
  O  O33  1  0.24132837  0.77125902  0.73010689  1
  O  O34  1  0.03502138  0.04938087  0.27381553  1
  O  O35  1  0.04655119  0.27343227  0.03749756  1
  O  O36  1  0.27625614  0.75993874  0.22587743  1
  O  O37  1  0.50675905  0.77156249  0.54183477  1
  O  O38  1  0.54728239  0.51350849  0.77229003  1
  O  O39  1  0.53599206  0.26275865  0.98767727  1
