# generated using pymatgen
data_SrCeN2
_symmetry_space_group_name_H-M   'P 1'
_cell_length_a   7.37683298
_cell_length_b   9.73787141
_cell_length_c   6.34652156
_cell_angle_alpha   29.23277876
_cell_angle_beta   54.51009182
_cell_angle_gamma   40.74648931
_symmetry_Int_Tables_number   1
_chemical_formula_structural   SrCeN2
_chemical_formula_sum   'Sr2 Ce2 N4'
_cell_volume   140.60449835
_cell_formula_units_Z   2
loop_
 _symmetry_equiv_pos_site_id
 _symmetry_equiv_pos_as_xyz
  1  'x, y, z'
loop_
 _atom_site_type_symbol
 _atom_site_label
 _atom_site_symmetry_multiplicity
 _atom_site_fract_x
 _atom_site_fract_y
 _atom_site_fract_z
 _atom_site_occupancy
  Sr  Sr0  1  0.00200084  0.99683179  0.00231995  1
  Sr  Sr1  1  0.75035855  0.49885504  0.00078937  1
  Ce  Ce2  1  0.25462351  0.49421687  0.00444335  1
  Ce  Ce3  1  0.49727165  0.99865370  0.00028875  1
  N  N4  1  0.28101797  0.00462572  0.43371238  1
  N  N5  1  0.04282121  0.48909483  0.44846368  1
  N  N6  1  0.71469745  0.00544179  0.55374567  1
  N  N7  1  0.47257482  0.50977825  0.54909486  1
