# generated using pymatgen
data_NaTaO3
_symmetry_space_group_name_H-M   'P 1'
_cell_length_a   7.57148203
_cell_length_b   7.44413581
_cell_length_c   14.78526168
_cell_angle_alpha   59.02675634
_cell_angle_beta   60.28676004
_cell_angle_gamma   59.44014109
_symmetry_Int_Tables_number   1
_chemical_formula_structural   NaTaO3
_chemical_formula_sum   'Na8 Ta8 O24'
_cell_volume   583.54911575
_cell_formula_units_Z   8
loop_
 _symmetry_equiv_pos_site_id
 _symmetry_equiv_pos_as_xyz
  1  'x, y, z'
loop_
 _atom_site_type_symbol
 _atom_site_label
 _atom_site_symmetry_multiplicity
 _atom_site_fract_x
 _atom_site_fract_y
 _atom_site_fract_z
 _atom_site_occupancy
  Na  Na0  1  0.01173790  0.99570527  0.47663165  1
  Na  Na1  1  0.99146764  0.52176136  0.22782695  1
  Na  Na2  1  0.52948760  0.98266355  0.23709991  1
  Na  Na3  1  0.52065046  0.49533231  0.25418695  1
  Na  Na4  1  0.02980549  0.46406213  0.77265305  1
  Na  Na5  1  0.51070880  0.48553864  0.51385573  1
  Na  Na6  1  0.48748195  0.50399490  0.75288877  1
  Na  Na7  1  0.49251176  0.54148005  0.97412963  1
  Ta  Ta8  1  0.99577472  0.00225932  0.99862435  1
  Ta  Ta9  1  0.00093220  0.99307247  0.24694223  1
  Ta  Ta10  1  0.49869450  0.99686857  0.00546932  1
  Ta  Ta11  1  0.48324790  0.98757129  0.48759462  1
  Ta  Ta12  1  0.99891874  0.00396666  0.74683891  1
  Ta  Ta13  1  0.59763793  0.00296348  0.69979418  1
  Ta  Ta14  1  0.99971624  0.50198035  0.00392211  1
  Ta  Ta15  1  0.98375867  0.48493358  0.48543571  1
  O  O16  1  0.06694635  0.68245979  0.03854947  1
  O  O17  1  0.06286784  0.75604163  0.38632402  1
  O  O18  1  0.68262517  0.06213364  0.04337016  1
  O  O19  1  0.29719207  0.31396995  0.45249599  1
  O  O20  1  0.31631004  0.92281040  0.17939686  1
  O  O21  1  0.04476992  0.07251331  0.84582209  1
  O  O22  1  0.70328505  0.09048371  0.34648495  1
  O  O23  1  0.68338912  0.67344139  0.05117664  1
  O  O24  1  0.05888541  0.68357190  0.84845156  1
  O  O25  1  0.63250404  0.05408279  0.55490136  1
  O  O26  1  0.95307152  0.30739941  0.17358030  1
  O  O27  1  0.37829094  0.90454024  0.42841279  1
  O  O28  1  0.40532361  0.28473326  0.70904367  1
  O  O29  1  0.30877926  0.31019275  0.97903676  1
  O  O30  1  0.28361796  0.92509054  0.64548802  1
  O  O31  1  0.92599677  0.38772681  0.41367502  1
  O  O32  1  0.92874577  0.89607060  0.17987044  1
  O  O33  1  0.68130831  0.05263564  0.85133406  1
  O  O34  1  0.68367970  0.67835989  0.53302660  1
  O  O35  1  0.94241493  0.31821029  0.64493219  1
  O  O36  1  0.56272541  0.72962207  0.79421814  1
  O  O37  1  0.29280171  0.93239246  0.99225520  1
  O  O38  1  0.92846055  0.30914753  0.98166070  1
  O  O39  1  0.89947608  0.93821807  0.66759894  1
