# generated using pymatgen
data_Re3Pb3O10
_symmetry_space_group_name_H-M   'P 1'
_cell_length_a   7.46297014
_cell_length_b   22.45489003
_cell_length_c   19.81535199
_cell_angle_alpha   19.05548440
_cell_angle_beta   55.61395755
_cell_angle_gamma   60.10763503
_symmetry_Int_Tables_number   1
_chemical_formula_structural   Re3Pb3O10
_chemical_formula_sum   'Re12 Pb12 O40'
_cell_volume   886.91230518
_cell_formula_units_Z   4
loop_
 _symmetry_equiv_pos_site_id
 _symmetry_equiv_pos_as_xyz
  1  'x, y, z'
loop_
 _atom_site_type_symbol
 _atom_site_label
 _atom_site_symmetry_multiplicity
 _atom_site_fract_x
 _atom_site_fract_y
 _atom_site_fract_z
 _atom_site_occupancy
  Re  Re0  1  0.49962100  0.16697700  0.00080400  1
  Re  Re1  1  0.99934900  0.16727800  0.50040500  1
  Re  Re2  1  0.50089800  0.00152200  0.49770500  1
  Re  Re3  1  0.50072000  0.49990800  0.99945100  1
  Re  Re4  1  0.49769200  0.16724500  0.50039800  1
  Re  Re5  1  0.50065700  0.33398900  0.49921600  1
  Re  Re6  1  0.50061900  0.83407300  0.99921900  1
  Re  Re7  1  0.50310900  0.50049500  0.49862800  1
  Re  Re8  1  0.50007800  0.66472300  0.50292500  1
  Re  Re9  1  0.00117500  0.50060500  0.49840900  1
  Re  Re10  1  0.50162000  0.83331300  0.49979600  1
  Re  Re11  1  0.00068200  0.83250800  0.50084700  1
  Pb  Pb12  1  0.99458500  0.99867500  0.00619200  1
  Pb  Pb13  1  0.48975700  0.99771700  0.00812600  1
  Pb  Pb14  1  0.00002400  0.33103400  0.00226600  1
  Pb  Pb15  1  0.50046100  0.33145300  0.00271300  1
  Pb  Pb16  1  0.00779000  0.67200400  0.98948500  1
  Pb  Pb17  1  0.00899100  0.17070900  0.98996500  1
  Pb  Pb18  1  0.99989100  0.83365800  0.99980100  1
  Pb  Pb19  1  0.99910600  0.33416100  0.49967300  1
  Pb  Pb20  1  0.51116500  0.67128900  0.99020200  1
  Pb  Pb21  1  0.99276500  0.50102600  0.00376100  1
  Pb  Pb22  1  0.00945900  0.67301000  0.48812800  1
  Pb  Pb23  1  0.99215000  0.99649400  0.50842800  1
  O  O24  1  0.18395100  0.06647300  0.18314800  1
  O  O25  1  0.10127800  0.28496600  0.14770800  1
  O  O26  1  0.56879300  0.06707900  0.18222800  1
  O  O27  1  0.18210200  0.01602800  0.56737800  1
  O  O28  1  0.18458200  0.39869700  0.18405000  1
  O  O29  1  0.56565300  0.27284800  0.18269200  1
  O  O30  1  0.15151000  0.63330300  0.10049600  1
  O  O31  1  0.18559800  0.14483000  0.56467000  1
  O  O32  1  0.56447900  0.01749200  0.56639600  1
  O  O33  1  0.56395800  0.39731400  0.18595700  1
  O  O34  1  0.18316000  0.34958200  0.56849100  1
  O  O35  1  0.43828700  0.31548300  0.43341200  1
  O  O36  1  0.18392400  0.73426300  0.18374700  1
  O  O37  1  0.55941200  0.60493400  0.18945500  1
  O  O38  1  0.81826400  0.18878900  0.43226200  1
  O  O39  1  0.44029800  0.06207000  0.81099100  1
  O  O40  1  0.18136100  0.47747500  0.56890000  1
  O  O41  1  0.56413300  0.35051600  0.56721300  1
  O  O42  1  0.81497300  0.31378700  0.43565200  1
  O  O43  1  0.56400800  0.73581600  0.18237100  1
  O  O44  1  0.18554400  0.68583800  0.56320600  1
  O  O45  1  0.43591500  0.26679200  0.81617700  1
  O  O46  1  0.43657700  0.64808200  0.43533800  1
  O  O47  1  0.56845900  0.93925900  0.18187500  1
  O  O48  1  0.84980900  0.03454600  0.89848600  1
  O  O49  1  0.81900800  0.52230800  0.43228100  1
  O  O50  1  0.43614400  0.39480200  0.81488100  1
  O  O51  1  0.18736700  0.81287200  0.56158900  1
  O  O52  1  0.56672200  0.68869600  0.55998300  1
  O  O53  1  0.81751300  0.26643400  0.81641500  1
  O  O54  1  0.81530100  0.64742900  0.43603500  1
  O  O55  1  0.43437700  0.60487100  0.81343500  1
  O  O56  1  0.43356600  0.98436700  0.43249300  1
  O  O57  1  0.81262900  0.85339800  0.44015700  1
  O  O58  1  0.89964900  0.38574500  0.84766300  1
  O  O59  1  0.43238500  0.72764700  0.81849500  1
  O  O60  1  0.81562000  0.60231100  0.81621200  1
  O  O61  1  0.81876900  0.98417600  0.43302100  1
  O  O62  1  0.43703800  0.93198200  0.81670300  1
  O  O63  1  0.81933200  0.93051200  0.81808500  1
