# generated using pymatgen
data_SrLa9MgGa9O29
_symmetry_space_group_name_H-M   'P 1'
_cell_length_a   5.55738522
_cell_length_b   5.58375876
_cell_length_c   27.84977571
_cell_angle_alpha   60.40292545
_cell_angle_beta   60.24173885
_cell_angle_gamma   60.16659503
_symmetry_Int_Tables_number   1
_chemical_formula_structural   SrLa9MgGa9O29
_chemical_formula_sum   'Sr1 La9 Mg1 Ga9 O29'
_cell_volume   614.82291363
_cell_formula_units_Z   1
loop_
 _symmetry_equiv_pos_site_id
 _symmetry_equiv_pos_as_xyz
  1  'x, y, z'
loop_
 _atom_site_type_symbol
 _atom_site_label
 _atom_site_symmetry_multiplicity
 _atom_site_fract_x
 _atom_site_fract_y
 _atom_site_fract_z
 _atom_site_occupancy
  Sr  Sr0  1  0.23604942  0.75160325  0.15408436  1
  La  La1  1  0.75360378  0.25671118  0.04548398  1
  La  La2  1  0.25002697  0.75094999  0.34856184  1
  La  La3  1  0.70768226  0.26322544  0.25600726  1
  La  La4  1  0.25036928  0.74011120  0.55157022  1
  La  La5  1  0.75121650  0.26195960  0.44695308  1
  La  La6  1  0.25254176  0.74126225  0.75079770  1
  La  La7  1  0.75157942  0.25991289  0.64743547  1
  La  La8  1  0.26407832  0.74046240  0.94897617  1
  La  La9  1  0.75215015  0.25791983  0.84782629  1
  Mg  Mg10  1  0.53007252  0.97512382  0.20282498  1
  Ga  Ga11  1  0.97051839  0.52697864  0.09485262  1
  Ga  Ga12  1  0.99932143  0.50322799  0.29857965  1
  Ga  Ga13  1  0.00004684  0.50129959  0.49952231  1
  Ga  Ga14  1  0.49838566  0.99681808  0.40185433  1
  Ga  Ga15  1  0.00063749  0.49989672  0.69968724  1
  Ga  Ga16  1  0.50136455  0.00065179  0.59937736  1
  Ga  Ga17  1  0.00109089  0.50147135  0.89908621  1
  Ga  Ga18  1  0.50209604  0.00096208  0.79915953  1
  Ga  Ga19  1  0.49536920  0.00234425  0.00098433  1
  O  O20  1  0.26898057  0.18602490  0.06621670  1
  O  O21  1  0.30207349  0.69206260  0.04624599  1
  O  O22  1  0.24303223  0.18351062  0.26286348  1
  O  O23  1  0.27101954  0.72734417  0.24173826  1
  O  O24  1  0.81091025  0.71382498  0.03403126  1
  O  O25  1  0.21980089  0.29610481  0.35560931  1
  O  O26  1  0.73747805  0.28844475  0.15906978  1
  O  O27  1  0.24557235  0.16469336  0.46734320  1
  O  O28  1  0.76178511  0.83301247  0.13109046  1
  O  O29  1  0.29190449  0.70536435  0.44123060  1
  O  O30  1  0.77135523  0.67440534  0.24975490  1
  O  O31  1  0.20227783  0.29635146  0.55947070  1
  O  O32  1  0.70602019  0.28451748  0.36217386  1
  O  O33  1  0.24928285  0.16627540  0.66693534  1
  O  O34  1  0.74180802  0.82778477  0.33641339  1
  O  O35  1  0.29552460  0.70333184  0.64152764  1
  O  O36  1  0.79588183  0.69714197  0.44172078  1
  O  O37  1  0.20201936  0.29470668  0.75979872  1
  O  O38  1  0.70275271  0.29574207  0.56003190  1
  O  O39  1  0.25255384  0.16813492  0.86612231  1
  O  O40  1  0.74789590  0.83458444  0.53347023  1
  O  O41  1  0.29644540  0.70228262  0.84226533  1
  O  O42  1  0.79535367  0.70284523  0.64113387  1
  O  O43  1  0.20220830  0.28744774  0.96024819  1
  O  O44  1  0.70312664  0.29670554  0.75935814  1
  O  O45  1  0.74828202  0.83257113  0.73362658  1
  O  O46  1  0.79746418  0.70444762  0.84018825  1
  O  O47  1  0.70491098  0.29897767  0.95696552  1
  O  O48  1  0.74067860  0.83186674  0.93321039  1
