# generated using pymatgen
data_Bi2O3
_symmetry_space_group_name_H-M   'P 1'
_cell_length_a   4.08046193
_cell_length_b   3.74137356
_cell_length_c   8.20278716
_cell_angle_alpha   62.66371656
_cell_angle_beta   62.59337005
_cell_angle_gamma   61.13164830
_symmetry_Int_Tables_number   1
_chemical_formula_structural   Bi2O3
_chemical_formula_sum   'Bi2 O3'
_cell_volume   92.72427696
_cell_formula_units_Z   1
loop_
 _symmetry_equiv_pos_site_id
 _symmetry_equiv_pos_as_xyz
  1  'x, y, z'
loop_
 _atom_site_type_symbol
 _atom_site_label
 _atom_site_symmetry_multiplicity
 _atom_site_fract_x
 _atom_site_fract_y
 _atom_site_fract_z
 _atom_site_occupancy
  Bi  Bi0  1  0.94602867  0.02822038  0.01330771  1
  Bi  Bi1  1  0.07902272  0.99427574  0.49239435  1
  O  O2  1  0.30583872  0.22156129  0.15729459  1
  O  O3  1  0.74035335  0.68862773  0.47162629  1
  O  O4  1  0.87675654  0.75131486  0.83937705  1
