# generated using pymatgen
data_Al2O3
_symmetry_space_group_name_H-M   'P 1'
_cell_length_a   5.59359664
_cell_length_b   6.13436457
_cell_length_c   18.73166186
_cell_angle_alpha   95.70593888
_cell_angle_beta   121.69886240
_cell_angle_gamma   120.02206797
_symmetry_Int_Tables_number   1
_chemical_formula_structural   Al2O3
_chemical_formula_sum   'Al16 O24'
_cell_volume   412.25892514
_cell_formula_units_Z   8
loop_
 _symmetry_equiv_pos_site_id
 _symmetry_equiv_pos_as_xyz
  1  'x, y, z'
loop_
 _atom_site_type_symbol
 _atom_site_label
 _atom_site_symmetry_multiplicity
 _atom_site_fract_x
 _atom_site_fract_y
 _atom_site_fract_z
 _atom_site_occupancy
  Al  Al0  1  0.01674045  0.02882377  0.90699784  1
  Al  Al1  1  0.25226186  0.48778710  0.73299096  1
  Al  Al2  1  0.99414003  0.05349377  0.57290552  1
  Al  Al3  1  0.48929388  0.01898683  0.87903651  1
  Al  Al4  1  0.91096047  0.94578892  0.71563671  1
  Al  Al5  1  0.52724762  0.05829814  0.73790837  1
  Al  Al6  1  0.65947089  0.48421723  0.55762975  1
  Al  Al7  1  0.00567329  0.95251227  0.18211664  1
  Al  Al8  1  0.61606954  0.53214772  0.38006526  1
  Al  Al9  1  0.39977159  0.95767329  0.55126848  1
  Al  Al10  1  0.11404317  0.98880387  0.34499649  1
  Al  Al11  1  0.79433695  0.08379650  0.39242040  1
  Al  Al12  1  0.46357150  0.36269325  0.15065290  1
  Al  Al13  1  0.34085457  0.79777564  0.15798109  1
  Al  Al14  1  0.54453993  0.59701281  0.94817726  1
  Al  Al15  1  0.64120555  0.10046616  0.06091030  1
  O  O16  1  0.15605740  0.79647894  0.74962038  1
  O  O17  1  0.89847066  0.24041624  0.73690688  1
  O  O18  1  0.44221572  0.84787674  0.94754121  1
  O  O19  1  0.62371432  0.79520278  0.74647088  1
  O  O20  1  0.07680595  0.78169838  0.41868639  1
  O  O21  1  0.35626049  0.21564077  0.89591611  1
  O  O22  1  0.25692171  0.29852282  0.43425625  1
  O  O23  1  0.62223345  0.78466137  0.58537962  1
  O  O24  1  0.31744683  0.22382726  0.72019613  1
  O  O25  1  0.63715513  0.69318884  0.87339329  1
  O  O26  1  0.68044214  0.84081327  0.43979353  1
  O  O27  1  0.86753160  0.70082315  0.06945441  1
  O  O28  1  0.86888693  0.23287426  0.88595210  1
  O  O29  1  0.40459480  0.26085244  0.58748791  1
  O  O30  1  0.09961211  0.38174247  0.10897634  1
  O  O31  1  0.62016894  0.85093187  0.28038289  1
  O  O32  1  0.62914490  0.24708552  0.40667663  1
  O  O33  1  0.10832283  0.79777881  0.59136045  1
  O  O34  1  0.54886775  0.85868331  0.10510409  1
  O  O35  1  0.86881516  0.28088170  0.59228904  1
  O  O36  1  0.44598162  0.15051465  0.20726161  1
  O  O37  1  0.34720014  0.17443789  0.03967193  1
  O  O38  1  0.91625903  0.70813630  0.23001237  1
  O  O39  1  0.16204808  0.24438296  0.27399107  1
