# generated using pymatgen
data_In4SbTe3
_symmetry_space_group_name_H-M   'P 1'
_cell_length_a   8.83811760
_cell_length_b   11.71277127
_cell_length_c   7.63835351
_cell_angle_alpha   29.26368274
_cell_angle_beta   54.69270229
_cell_angle_gamma   40.72265468
_symmetry_Int_Tables_number   1
_chemical_formula_structural   In4SbTe3
_chemical_formula_sum   'In4 Sb1 Te3'
_cell_volume   243.43614512
_cell_formula_units_Z   1
loop_
 _symmetry_equiv_pos_site_id
 _symmetry_equiv_pos_as_xyz
  1  'x, y, z'
loop_
 _atom_site_type_symbol
 _atom_site_label
 _atom_site_symmetry_multiplicity
 _atom_site_fract_x
 _atom_site_fract_y
 _atom_site_fract_z
 _atom_site_occupancy
  In  In0  1  0.99943271  0.00142919  0.00298715  1
  In  In1  1  0.50197408  0.99175057  0.01112466  1
  In  In2  1  0.25395031  0.49735802  0.00046326  1
  In  In3  1  0.74237977  0.50877427  0.99721088  1
  Sb  Sb4  1  0.50065911  0.49649217  0.50553852  1
  Te  Te5  1  0.24683851  0.00591411  0.49284613  1
  Te  Te6  1  0.74686108  0.00452507  0.49889883  1
  Te  Te7  1  0.00186543  0.50147461  0.49970357  1
