# generated using pymatgen
data_Sr6Nb2O11
_symmetry_space_group_name_H-M   'P 1'
_cell_length_a   5.99701559
_cell_length_b   6.01942970
_cell_length_c   24.21587344
_cell_angle_alpha   59.00684833
_cell_angle_beta   60.04177098
_cell_angle_gamma   60.33734661
_symmetry_Int_Tables_number   1
_chemical_formula_structural   Sr6Nb2O11
_chemical_formula_sum   'Sr12 Nb4 O22'
_cell_volume   615.06905890
_cell_formula_units_Z   2
loop_
 _symmetry_equiv_pos_site_id
 _symmetry_equiv_pos_as_xyz
  1  'x, y, z'
loop_
 _atom_site_type_symbol
 _atom_site_label
 _atom_site_symmetry_multiplicity
 _atom_site_fract_x
 _atom_site_fract_y
 _atom_site_fract_z
 _atom_site_occupancy
  Sr  Sr0  1  0.15909976  0.33211761  0.06974112  1
  Sr  Sr1  1  0.46144975  0.57429122  0.11675714  1
  Sr  Sr2  1  0.22718061  0.26288402  0.29670726  1
  Sr  Sr3  1  0.40438329  0.50002431  0.37710603  1
  Sr  Sr4  1  0.64266505  0.80461529  0.19822120  1
  Sr  Sr5  1  0.21336310  0.22116804  0.57481939  1
  Sr  Sr6  1  0.48442627  0.51291884  0.61640596  1
  Sr  Sr7  1  0.22753059  0.27621268  0.79933323  1
  Sr  Sr8  1  0.65315507  0.77785251  0.42471204  1
  Sr  Sr9  1  0.44306328  0.49998308  0.88333122  1
  Sr  Sr10  1  0.64579195  0.75778106  0.70369802  1
  Sr  Sr11  1  0.69811218  0.77427998  0.92263348  1
  Nb  Nb12  1  0.98644679  0.05478545  0.99693546  1
  Nb  Nb13  1  0.93472879  0.03272033  0.24822609  1
  Nb  Nb14  1  0.92879359  0.00280083  0.50025604  1
  Nb  Nb15  1  0.94767676  0.03548044  0.74869554  1
  O  O16  1  0.21118903  0.24632978  0.18459890  1
  O  O17  1  0.22550717  0.72776747  0.21289944  1
  O  O18  1  0.76965156  0.37595586  0.02758943  1
  O  O19  1  0.80222192  0.80891395  0.07872962  1
  O  O20  1  0.78910343  0.18945397  0.17147578  1
  O  O21  1  0.66235378  0.33980598  0.28302783  1
  O  O22  1  0.19408482  0.15304374  0.41406190  1
  O  O23  1  0.06517094  0.87574192  0.32877756  1
  O  O24  1  0.66177029  0.82379427  0.30773273  1
  O  O25  1  0.63302412  0.30415193  0.45970735  1
  O  O26  1  0.67605922  0.09886329  0.58162042  1
  O  O27  1  0.21075852  0.78905887  0.69279745  1
  O  O28  1  0.22625567  0.84653869  0.53819494  1
  O  O29  1  0.31235493  0.06614829  0.99594025  1
  O  O30  1  0.91170947  0.68324762  0.50420737  1
  O  O31  1  0.81242459  0.32784057  0.66967234  1
  O  O32  1  0.22987282  0.22103493  0.70693816  1
  O  O33  1  0.64302992  0.28460039  0.80317903  1
  O  O34  1  0.23945040  0.73876159  0.96324656  1
  O  O35  1  0.10709048  0.80989549  0.82537673  1
  O  O36  1  0.67960613  0.82963906  0.79556849  1
  O  O37  1  0.87494397  0.27099166  0.91730448  1
