# generated using pymatgen
data_InAgSe2
_symmetry_space_group_name_H-M   'P 1'
_cell_length_a   8.04516541
_cell_length_b   10.68752234
_cell_length_c   7.02392552
_cell_angle_alpha   29.15481842
_cell_angle_beta   54.99552362
_cell_angle_gamma   41.03887454
_symmetry_Int_Tables_number   1
_chemical_formula_structural   InAgSe2
_chemical_formula_sum   'In2 Ag2 Se4'
_cell_volume   186.22061474
_cell_formula_units_Z   2
loop_
 _symmetry_equiv_pos_site_id
 _symmetry_equiv_pos_as_xyz
  1  'x, y, z'
loop_
 _atom_site_type_symbol
 _atom_site_label
 _atom_site_symmetry_multiplicity
 _atom_site_fract_x
 _atom_site_fract_y
 _atom_site_fract_z
 _atom_site_occupancy
  In  In0  1  0.12719227  0.49998742  0.75333807  1
  In  In1  1  0.37753919  0.00086566  0.75227762  1
  Ag  Ag2  1  0.62301093  0.49608290  0.75970285  1
  Ag  Ag3  1  0.86821598  0.00231529  0.75457078  1
  Se  Se4  1  0.13468605  0.00041860  0.23024882  1
  Se  Se5  1  0.61131966  0.99635767  0.28063400  1
  Se  Se6  1  0.35738855  0.50458919  0.27234859  1
  Se  Se7  1  0.88623035  0.49615627  0.23469728  1
