# generated using pymatgen
data_Na3V2P2O10F
_symmetry_space_group_name_H-M   'P 1'
_cell_length_a   6.48215294
_cell_length_b   6.47986597
_cell_length_c   13.99308230
_cell_angle_alpha   117.36109747
_cell_angle_beta   117.40033983
_cell_angle_gamma   89.92680799
_symmetry_Int_Tables_number   1
_chemical_formula_structural   Na3V2P2O10F
_chemical_formula_sum   'Na6 V4 P4 O20 F2'
_cell_volume   446.66558401
_cell_formula_units_Z   2
loop_
 _symmetry_equiv_pos_site_id
 _symmetry_equiv_pos_as_xyz
  1  'x, y, z'
loop_
 _atom_site_type_symbol
 _atom_site_label
 _atom_site_symmetry_multiplicity
 _atom_site_fract_x
 _atom_site_fract_y
 _atom_site_fract_z
 _atom_site_occupancy
  Na  Na0  1  0.25055862  0.31423579  0.49839904  1
  Na  Na1  1  0.24808876  0.31434408  0.99850118  1
  Na  Na2  1  0.73272248  0.25913625  0.49977296  1
  Na  Na3  1  0.72810631  0.74325630  0.50237957  1
  Na  Na4  1  0.68725056  0.75094470  0.00155382  1
  Na  Na5  1  0.73676492  0.26398059  0.99996532  1
  V  V6  1  0.20494819  0.19593580  0.69893958  1
  V  V7  1  0.20408076  0.19348111  0.19836011  1
  V  V8  1  0.80650670  0.79609913  0.80145611  1
  V  V9  1  0.80626596  0.79713969  0.30099243  1
  P  P10  1  0.24835061  0.75307225  0.75046597  1
  P  P11  1  0.24880137  0.75264823  0.25073272  1
  P  P12  1  0.74654999  0.25236590  0.74938966  1
  P  P13  1  0.74664809  0.25282951  0.24943145  1
  O  O14  1  0.14837264  0.84349066  0.83950883  1
  O  O15  1  0.16101597  0.47363196  0.66257803  1
  O  O16  1  0.15944519  0.85343375  0.66129284  1
  O  O17  1  0.36248663  0.34629818  0.85655363  1
  O  O18  1  0.52755525  0.83797395  0.83744409  1
  O  O19  1  0.14715790  0.84402851  0.33912361  1
  O  O20  1  0.46960297  0.16878625  0.66021280  1
  O  O21  1  0.16175447  0.47319225  0.16319848  1
  O  O22  1  0.15942261  0.85238224  0.16131206  1
  O  O23  1  0.36330817  0.34389963  0.35591743  1
  O  O24  1  0.65683187  0.63772195  0.64387313  1
  O  O25  1  0.83219646  0.14520673  0.83624372  1
  O  O26  1  0.83355216  0.52938335  0.83938267  1
  O  O27  1  0.52834499  0.83703214  0.33797254  1
  O  O28  1  0.85455183  0.16538937  0.66299683  1
  O  O29  1  0.46998722  0.16765325  0.15983944  1
  O  O30  1  0.65360906  0.63795388  0.14336119  1
  O  O31  1  0.83244910  0.14643848  0.33667550  1
  O  O32  1  0.83450841  0.52995675  0.33922866  1
  O  O33  1  0.85415249  0.16591115  0.16295712  1
  F  F34  1  0.99308702  0.00798802  0.50005593  1
  F  F35  1  0.99196427  0.00777823  0.99993153  1
