# generated using pymatgen
data_Sr7PrFe4(MoO6)4
_symmetry_space_group_name_H-M   'P 1'
_cell_length_a   5.61864731
_cell_length_b   22.57447168
_cell_length_c   5.68447638
_cell_angle_alpha   119.64612454
_cell_angle_beta   119.64831153
_cell_angle_gamma   90.01908398
_symmetry_Int_Tables_number   1
_chemical_formula_structural   Sr7PrFe4(MoO6)4
_chemical_formula_sum   'Sr7 Pr1 Fe4 Mo4 O24'
_cell_volume   515.13623163
_cell_formula_units_Z   1
loop_
 _symmetry_equiv_pos_site_id
 _symmetry_equiv_pos_as_xyz
  1  'x, y, z'
loop_
 _atom_site_type_symbol
 _atom_site_label
 _atom_site_symmetry_multiplicity
 _atom_site_fract_x
 _atom_site_fract_y
 _atom_site_fract_z
 _atom_site_occupancy
  Sr  Sr0  1  0.25612400  0.19163335  0.51128113  1
  Sr  Sr1  1  0.24570360  0.43679629  0.49630820  1
  Sr  Sr2  1  0.25847029  0.69103464  0.51543755  1
  Sr  Sr3  1  0.23746328  0.92993289  0.47671935  1
  Sr  Sr4  1  0.75350352  0.31185938  0.49771190  1
  Sr  Sr5  1  0.75447803  0.06650102  0.51459747  1
  Sr  Sr6  1  0.74670676  0.56135484  0.49563889  1
  Pr  Pr7  1  0.74394093  0.80969294  0.49348448  1
  Fe  Fe8  1  0.99794585  0.25054337  0.00327833  1
  Fe  Fe9  1  0.00465130  0.50045513  0.00132543  1
  Fe  Fe10  1  0.00234766  0.75215264  0.00429971  1
  Fe  Fe11  1  0.49428889  0.87072898  0.99067306  1
  Mo  Mo12  1  0.99367976  0.99633010  0.99239539  1
  Mo  Mo13  1  0.50132355  0.12555026  0.00333717  1
  Mo  Mo14  1  0.50216579  0.37623134  0.00238668  1
  Mo  Mo15  1  0.49927914  0.62512031  -0.00014754  1
  O  O16  1  0.25124664  0.05879196  0.49669083  1
  O  O17  1  0.26016613  0.31390108  0.50170249  1
  O  O18  1  0.24368540  0.56398184  0.50086825  1
  O  O19  1  0.24126747  0.81231889  0.49891696  1
  O  O20  1  0.20942022  0.17721392  0.99403772  1
  O  O21  1  0.20803695  0.42849746  0.00245583  1
  O  O22  1  0.22140986  0.67654204  0.00722825  1
  O  O23  1  0.18210776  0.91934668  0.97353141  1
  O  O24  1  0.27813438  0.04693511  0.99687836  1
  O  O25  1  0.29602198  0.30672956  0.00056966  1
  O  O26  1  0.28850685  0.55246059  0.99858362  1
  O  O27  1  0.32398351  0.80161378  0.03194911  1
  O  O28  1  0.75453395  0.18726420  0.49856171  1
  O  O29  1  0.74450763  0.43958585  0.50480730  1
  O  O30  1  0.75892386  0.69074794  0.50305274  1
  O  O31  1  0.74861858  0.93422035  0.49586853  1
  O  O32  1  0.71019720  0.20019626  0.99875285  1
  O  O33  1  0.70482014  0.44767610  0.00619383  1
  O  O34  1  0.70953466  0.70233633  0.01579667  1
  O  O35  1  0.71190432  0.94963080  0.00134096  1
  O  O36  1  0.79609031  0.07232453  0.00228813  1
  O  O37  1  0.79327309  0.32397042  -0.00009680  1
  O  O38  1  0.78014563  0.57533894  0.00327556  1
  O  O39  1  0.79139112  0.82245790  0.96801882  1
