# generated using pymatgen
data_Sm2Mo2O7
_symmetry_space_group_name_H-M   'P 1'
_cell_length_a   7.61149598
_cell_length_b   14.81006041
_cell_length_c   12.91996230
_cell_angle_alpha   29.25555768
_cell_angle_beta   53.87417596
_cell_angle_gamma   59.04475138
_symmetry_Int_Tables_number   1
_chemical_formula_structural   Sm2Mo2O7
_chemical_formula_sum   'Sm8 Mo8 O28'
_cell_volume   574.90855711
_cell_formula_units_Z   4
loop_
 _symmetry_equiv_pos_site_id
 _symmetry_equiv_pos_as_xyz
  1  'x, y, z'
loop_
 _atom_site_type_symbol
 _atom_site_label
 _atom_site_symmetry_multiplicity
 _atom_site_fract_x
 _atom_site_fract_y
 _atom_site_fract_z
 _atom_site_occupancy
  Sm  Sm0  1  0.50394408  0.00006560  0.50428300  1
  Sm  Sm1  1  0.98920853  0.50025722  0.50392094  1
  Sm  Sm2  1  0.50206816  0.24958320  0.50080114  1
  Sm  Sm3  1  0.49782883  0.50017747  0.49711516  1
  Sm  Sm4  1  0.00895014  0.00023057  0.49715202  1
  Sm  Sm5  1  0.50030407  0.24974152  0.00026224  1
  Sm  Sm6  1  0.49997547  0.75132010  0.49840709  1
  Sm  Sm7  1  0.50008910  0.74837740  0.00189396  1
  Mo  Mo8  1  0.00526519  0.00042852  0.98126875  1
  Mo  Mo9  1  0.99921847  0.25000889  0.99971290  1
  Mo  Mo10  1  0.99708570  0.50040489  0.01717983  1
  Mo  Mo11  1  0.46839642  0.00083568  0.01677840  1
  Mo  Mo12  1  0.00503668  0.25207432  0.49645265  1
  Mo  Mo13  1  0.00124962  0.75065638  0.99907536  1
  Mo  Mo14  1  0.53098417  0.50079180  0.98110968  1
  Mo  Mo15  1  0.99975775  0.75113867  0.49831498  1
  O  O16  1  0.15081016  0.00082362  0.13758869  1
  O  O17  1  0.10501496  0.29751939  0.08333110  1
  O  O18  1  0.62871031  0.00038308  0.09788684  1
  O  O19  1  0.93843439  0.00280716  0.85469790  1
  O  O20  1  0.36576927  0.29612258  0.32565730  1
  O  O21  1  0.12249509  0.25130043  0.61950619  1
  O  O22  1  0.11768405  0.74967034  0.12070340  1
  O  O23  1  0.63961215  0.24930517  0.12164515  1
  O  O24  1  0.89420915  0.00016741  0.36886310  1
  O  O25  1  0.67554002  0.49700403  0.10182260  1
  O  O26  1  0.11011065  0.50022590  0.62834767  1
  O  O27  1  0.35731139  0.24916126  0.88283093  1
  O  O28  1  0.35719289  0.75162727  0.37971523  1
  O  O29  1  0.10635867  0.70341668  0.67663306  1
  O  O30  1  0.88309522  0.25195404  0.37985875  1
  O  O31  1  0.63592839  0.79685683  0.08343176  1
  O  O32  1  0.63230258  0.20288391  0.67788505  1
  O  O33  1  0.07616542  0.50280233  0.13421449  1
  O  O34  1  0.86967585  0.49850760  0.36982533  1
  O  O35  1  0.37771241  0.50030042  0.89649469  1
  O  O36  1  0.13430472  0.99841199  0.62964097  1
  O  O37  1  0.36898506  0.70339782  0.91793991  1
  O  O38  1  0.89047567  0.20391890  0.91791295  1
  O  O39  1  0.89174325  0.79700633  0.32406201  1
  O  O40  1  0.63940284  0.75154972  0.61876573  1
  O  O41  1  0.84664474  0.50078491  0.85729754  1
  O  O42  1  0.32861975  0.99702725  0.90104390  1
  O  O43  1  0.87848557  0.74880039  0.88264165  1
