# generated using pymatgen
data_K3(MoO3)10
_symmetry_space_group_name_H-M   'P 1'
_cell_length_a   9.74778970
_cell_length_b   9.68994427
_cell_length_c   9.55653506
_cell_angle_alpha   110.15705188
_cell_angle_beta   100.82853234
_cell_angle_gamma   111.93597063
_symmetry_Int_Tables_number   1
_chemical_formula_structural   K3(MoO3)10
_chemical_formula_sum   'K3 Mo10 O30'
_cell_volume   732.23837413
_cell_formula_units_Z   1
loop_
 _symmetry_equiv_pos_site_id
 _symmetry_equiv_pos_as_xyz
  1  'x, y, z'
loop_
 _atom_site_type_symbol
 _atom_site_label
 _atom_site_symmetry_multiplicity
 _atom_site_fract_x
 _atom_site_fract_y
 _atom_site_fract_z
 _atom_site_occupancy
  K  K0  1  0.27666065  0.74791381  0.34357739  1
  K  K1  1  0.50000000  0.50000000  0.00000000  1
  K  K2  1  0.72333935  0.25208619  0.65642261  1
  Mo  Mo3  1  0.70128963  0.78118029  0.48040220  1
  Mo  Mo4  1  0.60273680  0.91049470  0.76208259  1
  Mo  Mo5  1  0.68523992  0.92452262  0.17882699  1
  Mo  Mo6  1  0.19981065  0.57736536  0.65938386  1
  Mo  Mo7  1  0.96311900  0.78851430  0.01213534  1
  Mo  Mo8  1  0.03688100  0.21148570  0.98786466  1
  Mo  Mo9  1  0.80018935  0.42263464  0.34061614  1
  Mo  Mo10  1  0.31476008  0.07547738  0.82117301  1
  Mo  Mo11  1  0.39726320  0.08950530  0.23791741  1
  Mo  Mo12  1  0.29871037  0.21881971  0.51959780  1
  O  O13  1  0.35488932  0.27944565  0.34701195  1
  O  O14  1  0.59182710  0.91013132  0.54825860  1
  O  O15  1  0.17338026  0.17779327  0.88262181  1
  O  O16  1  0.79023581  0.33291799  0.14710836  1
  O  O17  1  0.61947753  0.88179311  0.96399361  1
  O  O18  1  0.95196676  0.84786222  0.86145131  1
  O  O19  1  0.82208074  0.10323628  0.85213569  1
  O  O20  1  0.10494708  0.06881695  0.43521344  1
  O  O21  1  0.17461390  0.87480068  0.67878071  1
  O  O22  1  0.36463795  0.71493122  0.63392654  1
  O  O23  1  0.50050059  0.95875155  0.19119053  1
  O  O24  1  0.38668903  0.23447735  0.74037168  1
  O  O25  1  0.76217983  0.59385002  0.35847235  1
  O  O26  1  0.88900630  0.57098690  0.91816051  1
  O  O27  1  0.11099370  0.42901310  0.08183949  1
  O  O28  1  0.23782017  0.40614998  0.64152765  1
  O  O29  1  0.61331097  0.76552265  0.25962832  1
  O  O30  1  0.49949941  0.04124845  0.80880947  1
  O  O31  1  0.63536205  0.28506878  0.36607346  1
  O  O32  1  0.82538610  0.12519932  0.32121929  1
  O  O33  1  0.00000000  0.50000000  0.50000000  1
  O  O34  1  0.89505292  0.93118305  0.56478656  1
  O  O35  1  0.17791926  0.89676372  0.14786431  1
  O  O36  1  0.04803324  0.15213778  0.13854869  1
  O  O37  1  0.38052247  0.11820689  0.03600639  1
  O  O38  1  0.20976419  0.66708201  0.85289164  1
  O  O39  1  0.82661974  0.82220673  0.11737819  1
  O  O40  1  0.40817290  0.08986868  0.45174140  1
  O  O41  1  0.50000000  0.50000000  0.50000000  1
  O  O42  1  0.64511068  0.72055435  0.65298805  1
