# generated using pymatgen
data_Sr4La4Mn7CuO24
_symmetry_space_group_name_H-M   'P 1'
_cell_length_a   5.45798848
_cell_length_b   21.83733806
_cell_length_c   5.55202970
_cell_angle_alpha   119.55909333
_cell_angle_beta   119.41839342
_cell_angle_gamma   90.03543656
_symmetry_Int_Tables_number   1
_chemical_formula_structural   Sr4La4Mn7CuO24
_chemical_formula_sum   'Sr4 La4 Mn7 Cu1 O24'
_cell_volume   474.91792172
_cell_formula_units_Z   1
loop_
 _symmetry_equiv_pos_site_id
 _symmetry_equiv_pos_as_xyz
  1  'x, y, z'
loop_
 _atom_site_type_symbol
 _atom_site_label
 _atom_site_symmetry_multiplicity
 _atom_site_fract_x
 _atom_site_fract_y
 _atom_site_fract_z
 _atom_site_occupancy
  Sr  Sr0  1  0.24650731  0.43644230  0.49763193  1
  Sr  Sr1  1  0.24839181  0.68787444  0.50001316  1
  Sr  Sr2  1  0.75349269  0.31355770  0.50236807  1
  Sr  Sr3  1  0.75160819  0.06212556  0.49998684  1
  La  La4  1  0.25825284  0.18996079  0.50752623  1
  La  La5  1  0.24911369  0.93606382  0.49660340  1
  La  La6  1  0.75088631  0.81393618  0.50339660  1
  La  La7  1  0.74174716  0.56003921  0.49247377  1
  Mn  Mn8  1  -0.00022331  0.00041685  0.00248513  1
  Mn  Mn9  1  0.00181339  0.25060405  0.00290145  1
  Mn  Mn10  1  0.99818661  0.49939595  0.99709855  1
  Mn  Mn11  1  0.00022331  0.74958315  0.99751487  1
  Mn  Mn12  1  0.50207172  0.12537883  0.00229741  1
  Mn  Mn13  1  0.50000000  0.37500000  0.00000000  1
  Mn  Mn14  1  0.49792828  0.62462117  0.99770259  1
  Cu  Cu15  1  0.50000000  0.87500000  0.00000000  1
  O  O16  1  0.25415629  0.06213937  0.50336723  1
  O  O17  1  0.24856644  0.30904867  0.49582087  1
  O  O18  1  0.25153736  0.56405060  0.50699753  1
  O  O19  1  0.23087026  0.81164210  0.47065955  1
  O  O20  1  0.21735402  0.17774108  0.01024201  1
  O  O21  1  0.22341863  0.43157483  0.00703310  1
  O  O22  1  0.19678781  0.67479865  0.98397607  1
  O  O23  1  0.20264439  0.92647907  0.00382350  1
  O  O24  1  0.28867174  0.05015541  0.98836117  1
  O  O25  1  0.27987826  0.30065457  0.98618504  1
  O  O26  1  0.29891702  0.55508266  0.01455188  1
  O  O27  1  0.29809106  0.80416046  0.01780876  1
  O  O28  1  0.74846264  0.18594940  0.49300247  1
  O  O29  1  0.75143356  0.44095133  0.50417913  1
  O  O30  1  0.74584371  0.68786063  0.49663277  1
  O  O31  1  0.76912974  0.93835790  0.52934045  1
  O  O32  1  0.70108298  0.19491734  0.98544812  1
  O  O33  1  0.72012174  0.44934543  0.01381496  1
  O  O34  1  0.71132826  0.69984459  0.01163883  1
  O  O35  1  0.70190894  0.94583954  0.98219124  1
  O  O36  1  0.77658137  0.31842517  0.99296690  1
  O  O37  1  0.80321219  0.07520135  0.01602393  1
  O  O38  1  0.79735561  0.82352093  0.99617650  1
  O  O39  1  0.78264598  0.57225892  0.98975799  1
