# generated using pymatgen
data_MoO2
_symmetry_space_group_name_H-M   'P 1'
_cell_length_a   6.43542692
_cell_length_b   6.43542692
_cell_length_c   6.43542692
_cell_angle_alpha   121.57381026
_cell_angle_beta   121.57381026
_cell_angle_gamma   87.29503222
_symmetry_Int_Tables_number   1
_chemical_formula_structural   MoO2
_chemical_formula_sum   'Mo4 O8'
_cell_volume   183.75339833
_cell_formula_units_Z   4
loop_
 _symmetry_equiv_pos_site_id
 _symmetry_equiv_pos_as_xyz
  1  'x, y, z'
loop_
 _atom_site_type_symbol
 _atom_site_label
 _atom_site_symmetry_multiplicity
 _atom_site_fract_x
 _atom_site_fract_y
 _atom_site_fract_z
 _atom_site_occupancy
  Mo  Mo0  1  0.87500000  0.62500000  0.25000000  1
  Mo  Mo1  1  0.37500000  0.62500000  0.75000000  1
  Mo  Mo2  1  0.37500000  0.12500000  0.75000000  1
  Mo  Mo3  1  0.37500000  0.62500000  0.25000000  1
  O  O4  1  0.14720800  0.85936400  0.71215600  1
  O  O5  1  0.56494900  0.85279200  0.71215600  1
  O  O6  1  0.60279200  0.39063600  0.78784400  1
  O  O7  1  0.60936400  0.39720800  0.21215600  1
  O  O8  1  0.18505100  0.39720800  0.78784400  1
  O  O9  1  0.60279200  0.81494900  0.21215600  1
  O  O10  1  0.14063600  0.85279200  0.28784400  1
  O  O11  1  0.14720800  0.43505100  0.28784400  1
