# generated using pymatgen
data_CaPH4O5F
_symmetry_space_group_name_H-M   'P 1'
_cell_length_a   8.74854741
_cell_length_b   6.52927226
_cell_length_c   5.80422972
_cell_angle_alpha   118.85638011
_cell_angle_beta   110.64941016
_cell_angle_gamma   94.26336659
_symmetry_Int_Tables_number   1
_chemical_formula_structural   CaPH4O5F
_chemical_formula_sum   'Ca2 P2 H8 O10 F2'
_cell_volume   259.34735302
_cell_formula_units_Z   2
loop_
 _symmetry_equiv_pos_site_id
 _symmetry_equiv_pos_as_xyz
  1  'x, y, z'
loop_
 _atom_site_type_symbol
 _atom_site_label
 _atom_site_symmetry_multiplicity
 _atom_site_fract_x
 _atom_site_fract_y
 _atom_site_fract_z
 _atom_site_occupancy
  Ca  Ca0  1  0.85775610  0.68102914  0.65517715  1
  Ca  Ca1  1  0.14224390  0.31897086  0.34482285  1
  P  P2  1  0.84963152  0.20116390  0.63917029  1
  P  P3  1  0.15036848  0.79883610  0.36082971  1
  H  H4  1  0.63717749  0.96141316  0.86010092  1
  H  H5  1  0.36282251  0.03858684  0.13989908  1
  H  H6  1  0.49020068  0.74607212  0.55090264  1
  H  H7  1  0.50979932  0.25392788  0.44909736  1
  H  H8  1  0.46779920  0.65978779  0.92635324  1
  H  H9  1  0.53220080  0.34021221  0.07364676  1
  H  H10  1  0.31602056  0.61506118  0.00734388  1
  H  H11  1  0.68397944  0.38493882  0.99265612  1
  O  O12  1  0.93407308  0.12230368  0.84987512  1
  O  O13  1  0.06592692  0.87769632  0.15012488  1
  O  O14  1  0.72545752  0.34787787  0.70730821  1
  O  O15  1  0.27454248  0.65212213  0.29269179  1
  O  O16  1  0.96858842  0.32295451  0.57372124  1
  O  O17  1  0.03141158  0.67704549  0.42627876  1
  O  O18  1  0.60703303  0.78928260  0.70506387  1
  O  O19  1  0.39296697  0.21071740  0.29493613  1
  O  O20  1  0.34397605  0.61074841  0.85230433  1
  O  O21  1  0.65602395  0.38925159  0.14769567  1
  F  F22  1  0.26887728  0.05733921  0.66584737  1
  F  F23  1  0.73112272  0.94266079  0.33415263  1
