# generated using pymatgen
data_CrH6SO7
_symmetry_space_group_name_H-M   'P 1'
_cell_length_a   5.78670969
_cell_length_b   7.54143215
_cell_length_c   7.29694931
_cell_angle_alpha   88.09857762
_cell_angle_beta   66.65558581
_cell_angle_gamma   85.18401152
_symmetry_Int_Tables_number   1
_chemical_formula_structural   CrH6SO7
_chemical_formula_sum   'Cr2 H12 S2 O14'
_cell_volume   291.33959666
_cell_formula_units_Z   2
loop_
 _symmetry_equiv_pos_site_id
 _symmetry_equiv_pos_as_xyz
  1  'x, y, z'
loop_
 _atom_site_type_symbol
 _atom_site_label
 _atom_site_symmetry_multiplicity
 _atom_site_fract_x
 _atom_site_fract_y
 _atom_site_fract_z
 _atom_site_occupancy
  Cr  Cr0  1  0.86828800  0.00772400  0.26896900  1
  Cr  Cr1  1  0.13694000  0.50718800  0.73084400  1
  H  H2  1  0.96797100  0.64859200  0.20823700  1
  H  H3  1  0.17621000  0.14798300  0.79165400  1
  H  H4  1  0.03233500  0.70767800  0.39117500  1
  H  H5  1  0.42341900  0.20706000  0.60881700  1
  H  H6  1  0.49591200  0.78196900  0.38083500  1
  H  H7  1  0.87605200  0.28152100  0.61929600  1
  H  H8  1  0.39170600  0.97208400  0.32668700  1
  H  H9  1  0.71785200  0.47171200  0.67329600  1
  H  H10  1  0.29704600  0.20737600  0.16154700  1
  H  H11  1  0.45787800  0.70710300  0.83829800  1
  H  H12  1  0.36746700  0.01776700  0.05336600  1
  H  H13  1  0.42031000  0.51765700  0.94672600  1
  S  S14  1  0.61797500  0.42658000  0.23077600  1
  S  S15  1  0.84874900  0.92616000  0.76928200  1
  O  O16  1  0.46546600  0.38768600  0.11493000  1
  O  O17  1  0.58052800  0.88730600  0.88517700  1
  O  O18  1  0.66917000  0.25672500  0.32718300  1
  O  O19  1  0.99631700  0.75634800  0.67278200  1
  O  O20  1  0.85955400  0.49863800  0.09570200  1
  O  O21  1  0.95539800  0.99822300  0.90433000  1
  O  O22  1  0.47376100  0.55544600  0.39416500  1
  O  O23  1  0.86787100  0.05500000  0.60590900  1
  O  O24  1  0.29012700  0.24650400  0.73678900  1
  O  O25  1  0.02712600  0.74699600  0.26313700  1
  O  O26  1  0.89086800  0.41220600  0.61975200  1
  O  O27  1  0.51116500  0.91266300  0.38037300  1
  O  O28  1  0.41478300  0.58340600  0.82574300  1
  O  O29  1  0.24115100  0.08369900  0.17422200  1
