# generated using pymatgen
data_NbAlO4
_symmetry_space_group_name_H-M   'P 1'
_cell_length_a   3.80337907
_cell_length_b   6.39871785
_cell_length_c   12.99407983
_cell_angle_alpha   102.38167904
_cell_angle_beta   98.41606295
_cell_angle_gamma   72.68996675
_symmetry_Int_Tables_number   1
_chemical_formula_structural   NbAlO4
_chemical_formula_sum   'Nb4 Al4 O16'
_cell_volume   293.73080752
_cell_formula_units_Z   4
loop_
 _symmetry_equiv_pos_site_id
 _symmetry_equiv_pos_as_xyz
  1  'x, y, z'
loop_
 _atom_site_type_symbol
 _atom_site_label
 _atom_site_symmetry_multiplicity
 _atom_site_fract_x
 _atom_site_fract_y
 _atom_site_fract_z
 _atom_site_occupancy
  Nb  Nb0  1  0.80214045  0.50587273  0.11450970  1
  Nb  Nb1  1  0.10320163  0.40150545  0.61477082  1
  Nb  Nb2  1  0.19267463  0.99123977  0.38316891  1
  Nb  Nb3  1  0.89175666  0.09563671  0.88292888  1
  Al  Al4  1  0.09360203  0.90022542  0.09249488  1
  Al  Al5  1  0.80136121  0.98618947  0.59514662  1
  Al  Al6  1  0.90118211  0.59684522  0.40518470  1
  Al  Al7  1  0.19351932  0.51094938  0.90255812  1
  O  O8  1  0.13350566  0.96738388  0.24045747  1
  O  O9  1  0.73858569  0.94306680  0.42664066  1
  O  O10  1  0.62974177  0.83204728  0.09663775  1
  O  O11  1  0.36507834  0.66506189  0.40109055  1
  O  O12  1  0.25623225  0.55399803  0.07100550  1
  O  O13  1  0.05646639  0.81959603  0.93710218  1
  O  O14  1  0.93844340  0.67749120  0.56059586  1
  O  O15  1  0.86125817  0.52962892  0.25721207  1
  O  O16  1  0.12969172  0.49317122  0.75813032  1
  O  O17  1  0.05736500  0.31098181  0.43181612  1
  O  O18  1  0.93749433  0.18610020  0.06590319  1
  O  O19  1  0.72971218  0.45549911  0.91942517  1
  O  O20  1  0.64553744  0.30508339  0.60266709  1
  O  O21  1  0.34940458  0.19203627  0.89502758  1
  O  O22  1  0.26527995  0.04160411  0.57830932  1
  O  O23  1  0.86532107  0.00403069  0.73960655  1
