# generated using pymatgen
data_Cu2OF2
_symmetry_space_group_name_H-M   'P 1'
_cell_length_a   5.69927005
_cell_length_b   6.08806842
_cell_length_c   5.74574332
_cell_angle_alpha   70.83222126
_cell_angle_beta   72.00845536
_cell_angle_gamma   108.66631174
_symmetry_Int_Tables_number   1
_chemical_formula_structural   Cu2OF2
_chemical_formula_sum   'Cu4 O2 F4'
_cell_volume   158.16904612
_cell_formula_units_Z   2
loop_
 _symmetry_equiv_pos_site_id
 _symmetry_equiv_pos_as_xyz
  1  'x, y, z'
loop_
 _atom_site_type_symbol
 _atom_site_label
 _atom_site_symmetry_multiplicity
 _atom_site_fract_x
 _atom_site_fract_y
 _atom_site_fract_z
 _atom_site_occupancy
  Cu  Cu0  1  0.50076700  0.00201100  0.99697800  1
  Cu  Cu1  1  0.50283900  0.00236200  0.49572200  1
  Cu  Cu2  1  0.50238400  0.50113600  0.49690200  1
  Cu  Cu3  1  0.00166500  0.50096100  0.49895200  1
  O  O4  1  0.62644400  0.24956400  0.62361800  1
  O  O5  1  0.37840100  0.75337300  0.36920400  1
  F  F6  1  0.63143900  0.26292200  0.11031400  1
  F  F7  1  0.87835000  0.76320300  0.37382100  1
  F  F8  1  0.12395500  0.23824400  0.62680800  1
  F  F9  1  0.36951400  0.74376500  0.88206400  1
