# generated using pymatgen
data_CeSmO2
_symmetry_space_group_name_H-M   'P 1'
_cell_length_a   4.97351511
_cell_length_b   6.09622827
_cell_length_c   4.98385156
_cell_angle_alpha   65.86437547
_cell_angle_beta   89.99008106
_cell_angle_gamma   114.06146065
_symmetry_Int_Tables_number   1
_chemical_formula_structural   CeSmO2
_chemical_formula_sum   'Ce2 Sm2 O4'
_cell_volume   123.36551466
_cell_formula_units_Z   2
loop_
 _symmetry_equiv_pos_site_id
 _symmetry_equiv_pos_as_xyz
  1  'x, y, z'
loop_
 _atom_site_type_symbol
 _atom_site_label
 _atom_site_symmetry_multiplicity
 _atom_site_fract_x
 _atom_site_fract_y
 _atom_site_fract_z
 _atom_site_occupancy
  Ce  Ce0  1  0.24627689  0.49853870  0.24979245  1
  Ce  Ce1  1  0.49658273  -0.00215714  0.50277708  1
  Sm  Sm2  1  0.99698788  0.99771989  0.00267705  1
  Sm  Sm3  1  0.74831334  0.49829324  0.74989451  1
  O  O4  1  0.74529159  0.49887274  0.25034563  1
  O  O5  1  0.24507650  0.49168613  0.74872278  1
  O  O6  1  0.49854219  0.00048030  0.00330301  1
  O  O7  1  0.99579887  -0.00268687  0.50212848  1
