# generated using pymatgen
data_NaCu3O4
_symmetry_space_group_name_H-M   'P 1'
_cell_length_a   5.45593025
_cell_length_b   6.07642492
_cell_length_c   3.51214683
_cell_angle_alpha   89.93012988
_cell_angle_beta   89.98104691
_cell_angle_gamma   63.07823343
_symmetry_Int_Tables_number   1
_chemical_formula_structural   NaCu3O4
_chemical_formula_sum   'Na1 Cu3 O4'
_cell_volume   103.81779380
_cell_formula_units_Z   1
loop_
 _symmetry_equiv_pos_site_id
 _symmetry_equiv_pos_as_xyz
  1  'x, y, z'
loop_
 _atom_site_type_symbol
 _atom_site_label
 _atom_site_symmetry_multiplicity
 _atom_site_fract_x
 _atom_site_fract_y
 _atom_site_fract_z
 _atom_site_occupancy
  Na  Na0  1  0.00248467  0.00428975  0.49531709  1
  Cu  Cu1  1  0.24281423  0.51308454  0.99878339  1
  Cu  Cu2  1  0.75895768  0.48077135  0.99130359  1
  Cu  Cu3  1  0.50186327  0.99587468  0.00885741  1
  O  O4  1  0.39402153  0.73595074  0.99165312  1
  O  O5  1  0.86807951  0.73485549  0.98835551  1
  O  O6  1  0.13393732  0.25769828  0.00259471  1
  O  O7  1  0.60833779  0.25761016  0.99195219  1
