# generated using pymatgen
data_FeO
_symmetry_space_group_name_H-M   'P 1'
_cell_length_a   3.04885928
_cell_length_b   5.29944278
_cell_length_c   6.17942126
_cell_angle_alpha   92.58211288
_cell_angle_beta   77.00955760
_cell_angle_gamma   30.40831634
_symmetry_Int_Tables_number   1
_chemical_formula_structural   FeO
_chemical_formula_sum   'Fe2 O2'
_cell_volume   43.07941083
_cell_formula_units_Z   2
loop_
 _symmetry_equiv_pos_site_id
 _symmetry_equiv_pos_as_xyz
  1  'x, y, z'
loop_
 _atom_site_type_symbol
 _atom_site_label
 _atom_site_symmetry_multiplicity
 _atom_site_fract_x
 _atom_site_fract_y
 _atom_site_fract_z
 _atom_site_occupancy
  Fe  Fe0  1  0.50837472  0.99356937  0.49917271  1
  Fe  Fe1  1  0.50959889  0.49265590  0.99918374  1
  O  O2  1  0.00414346  0.57833750  0.75487421  1
  O  O3  1  0.01422693  0.40762324  0.24349634  1
