# generated using pymatgen
data_NbPHO5
_symmetry_space_group_name_H-M   'P 1'
_cell_length_a   5.45087144
_cell_length_b   7.72692996
_cell_length_c   5.36730327
_cell_angle_alpha   109.57608086
_cell_angle_beta   97.42069341
_cell_angle_gamma   106.24708012
_symmetry_Int_Tables_number   1
_chemical_formula_structural   NbPHO5
_chemical_formula_sum   'Nb2 P2 H2 O10'
_cell_volume   198.18421191
_cell_formula_units_Z   2
loop_
 _symmetry_equiv_pos_site_id
 _symmetry_equiv_pos_as_xyz
  1  'x, y, z'
loop_
 _atom_site_type_symbol
 _atom_site_label
 _atom_site_symmetry_multiplicity
 _atom_site_fract_x
 _atom_site_fract_y
 _atom_site_fract_z
 _atom_site_occupancy
  Nb  Nb0  1  0.00000000  0.50000000  0.00000000  1
  Nb  Nb1  1  0.00000000  0.00000000  0.00000000  1
  P  P2  1  0.35177795  0.22823173  0.67193724  1
  P  P3  1  0.64822205  0.77176827  0.32806276  1
  H  H4  1  0.02304731  0.33392309  0.36302593  1
  H  H5  1  0.97695269  0.66607691  0.63697407  1
  O  O6  1  0.03113659  0.71839975  0.83928405  1
  O  O7  1  0.19974085  0.37573062  0.72135946  1
  O  O8  1  0.35231703  0.65895678  0.27678785  1
  O  O9  1  0.24727154  0.07694546  0.37605667  1
  O  O10  1  0.31107981  0.12179262  0.87088637  1
  O  O11  1  0.68892019  0.87820738  0.12911363  1
  O  O12  1  0.75272846  0.92305454  0.62394333  1
  O  O13  1  0.64768297  0.34104322  0.72321215  1
  O  O14  1  0.80025915  0.62426938  0.27864054  1
  O  O15  1  0.96886341  0.28160025  0.16071595  1
