# generated using pymatgen
data_TePHO5
_symmetry_space_group_name_H-M   'P 1'
_cell_length_a   5.48601991
_cell_length_b   7.99246676
_cell_length_c   5.42154564
_cell_angle_alpha   110.86013238
_cell_angle_beta   96.34663420
_cell_angle_gamma   106.49799624
_symmetry_Int_Tables_number   1
_chemical_formula_structural   TePHO5
_chemical_formula_sum   'Te2 P2 H2 O10'
_cell_volume   206.96168769
_cell_formula_units_Z   2
loop_
 _symmetry_equiv_pos_site_id
 _symmetry_equiv_pos_as_xyz
  1  'x, y, z'
loop_
 _atom_site_type_symbol
 _atom_site_label
 _atom_site_symmetry_multiplicity
 _atom_site_fract_x
 _atom_site_fract_y
 _atom_site_fract_z
 _atom_site_occupancy
  Te  Te0  1  0.00000000  0.50000000  0.00000000  1
  Te  Te1  1  0.00000000  0.00000000  0.00000000  1
  P  P2  1  0.35607458  0.22648679  0.66339847  1
  P  P3  1  0.64392542  0.77351321  0.33660153  1
  H  H4  1  0.03843902  0.33788580  0.36822113  1
  H  H5  1  0.96156098  0.66211420  0.63177887  1
  O  O6  1  0.04866149  0.71766215  0.83084290  1
  O  O7  1  0.19129192  0.36205019  0.68579855  1
  O  O8  1  0.35521002  0.66011070  0.31126591  1
  O  O9  1  0.24918942  0.05791489  0.37762339  1
  O  O10  1  0.33916016  0.15012488  0.88826994  1
  O  O11  1  0.66083984  0.84987512  0.11173006  1
  O  O12  1  0.75081058  0.94208511  0.62237661  1
  O  O13  1  0.64478998  0.33988930  0.68873409  1
  O  O14  1  0.80870808  0.63794981  0.31420145  1
  O  O15  1  0.95133851  0.28233785  0.16915710  1
