# generated using pymatgen
data_NdAl11O18
_symmetry_space_group_name_H-M   'P 1'
_cell_length_a   5.60902526
_cell_length_b   11.67333376
_cell_length_c   5.77178828
_cell_angle_alpha   106.13453345
_cell_angle_beta   59.38510075
_cell_angle_gamma   104.49298995
_symmetry_Int_Tables_number   1
_chemical_formula_structural   NdAl11O18
_chemical_formula_sum   'Nd1 Al11 O18'
_cell_volume   309.71132824
_cell_formula_units_Z   1
loop_
 _symmetry_equiv_pos_site_id
 _symmetry_equiv_pos_as_xyz
  1  'x, y, z'
loop_
 _atom_site_type_symbol
 _atom_site_label
 _atom_site_symmetry_multiplicity
 _atom_site_fract_x
 _atom_site_fract_y
 _atom_site_fract_z
 _atom_site_occupancy
  Nd  Nd0  1  0.50001870  0.49999380  0.99998309  1
  Al  Al1  1  0.08636485  0.78217574  0.09347449  1
  Al  Al2  1  0.99999973  0.99999732  0.00000447  1
  Al  Al3  1  0.08491501  0.77498794  0.58670800  1
  Al  Al4  1  0.58647120  0.79268851  0.09677527  1
  Al  Al5  1  0.35081973  0.05660830  0.35394972  1
  Al  Al6  1  0.46259831  0.37316039  0.45790126  1
  Al  Al7  1  0.53739542  0.62684258  0.54209655  1
  Al  Al8  1  0.64917915  0.94338761  0.64604999  1
  Al  Al9  1  0.41352680  0.20730860  0.90322546  1
  Al  Al10  1  0.91508275  0.22501085  0.41329256  1
  Al  Al11  1  0.91363379  0.21782207  0.90652803  1
  O  O12  1  0.29258959  0.89192056  0.29084262  1
  O  O13  1  0.10981781  0.29438472  0.10058697  1
  O  O14  1  0.27521924  0.89202792  0.80766715  1
  O  O15  1  0.19734011  0.10336444  0.18594031  1
  O  O16  1  0.11054890  0.28699991  0.60407992  1
  O  O17  1  0.40979560  0.70797487  0.37955791  1
  O  O18  1  0.67760717  0.50353396  0.55508057  1
  O  O19  1  0.19252241  0.09741626  0.72601678  1
  O  O20  1  0.38789182  0.69495737  0.90889064  1
  O  O21  1  0.61210612  0.30504259  0.09110894  1
  O  O22  1  0.80747899  0.90258625  0.27398654  1
  O  O23  1  0.32238791  0.49645925  0.44489658  1
  O  O24  1  0.59020245  0.29202739  0.62044923  1
  O  O25  1  0.88945274  0.71300378  0.39592387  1
  O  O26  1  0.80265921  0.89663746  0.81406188  1
  O  O27  1  0.72478128  0.10797397  0.19233615  1
  O  O28  1  0.70740902  0.10808073  0.70915680  1
  O  O29  1  0.89018220  0.70561485  0.89941728  1
