# generated using pymatgen
data_Y11Ta5O28
_symmetry_space_group_name_H-M   'P 1'
_cell_length_a   6.45334063
_cell_length_b   13.02979013
_cell_length_c   7.37129516
_cell_angle_alpha   106.42101308
_cell_angle_beta   89.92170712
_cell_angle_gamma   80.49362147
_symmetry_Int_Tables_number   1
_chemical_formula_structural   Y11Ta5O28
_chemical_formula_sum   'Y11 Ta5 O28'
_cell_volume   585.61642437
_cell_formula_units_Z   1
loop_
 _symmetry_equiv_pos_site_id
 _symmetry_equiv_pos_as_xyz
  1  'x, y, z'
loop_
 _atom_site_type_symbol
 _atom_site_label
 _atom_site_symmetry_multiplicity
 _atom_site_fract_x
 _atom_site_fract_y
 _atom_site_fract_z
 _atom_site_occupancy
  Y  Y0  1  0.03332974  0.50329234  0.25087289  1
  Y  Y1  1  0.25013567  0.74885265  0.37601396  1
  Y  Y2  1  0.97231768  0.49731617  0.74880398  1
  Y  Y3  1  0.25086584  0.25006249  0.37374310  1
  Y  Y4  1  0.74290510  0.74726669  0.61884130  1
  Y  Y5  1  0.75434789  0.75155720  0.13037125  1
  Y  Y6  1  0.25212473  0.24921745  0.87343412  1
  Y  Y7  1  0.52843524  0.00089097  0.99878150  1
  Y  Y8  1  0.77246571  0.22959405  0.11428948  1
  Y  Y9  1  0.46725821  0.99527286  0.49706265  1
  Y  Y10  1  0.72928654  0.26842017  0.63384100  1
  Ta  Ta11  1  0.24989770  0.74897056  0.87458761  1
  Ta  Ta12  1  0.99156448  0.00374505  0.73597109  1
  Ta  Ta13  1  0.50918690  0.49411573  0.48074681  1
  Ta  Ta14  1  0.50943110  0.49477709  0.01180614  1
  Ta  Ta15  1  0.99165568  0.00418881  0.26680065  1
  O  O16  1  0.12993902  0.94097840  0.46968980  1
  O  O17  1  0.89500912  0.03274376  0.01592363  1
  O  O18  1  0.11019248  0.84139246  0.72221252  1
  O  O19  1  0.10145187  0.83856979  0.11891885  1
  O  O20  1  0.04467754  0.31834196  0.65968362  1
  O  O21  1  0.05389925  0.31831881  0.15833572  1
  O  O22  1  0.52011617  0.81792429  0.91034395  1
  O  O23  1  0.54883696  0.80393037  0.40053660  1
  O  O24  1  0.21844406  0.46043428  0.95573727  1
  O  O25  1  0.71914987  0.94614418  0.69498789  1
  O  O26  1  0.39412332  0.65828831  0.02753691  1
  O  O27  1  0.39842204  0.66008169  0.62819100  1
  O  O28  1  0.71787339  0.94749058  0.25075363  1
  O  O29  1  0.21857539  0.45961209  0.50309808  1
  O  O30  1  0.60685408  0.46527335  0.73185119  1
  O  O31  1  0.37100819  0.55682252  0.27796659  1
  O  O32  1  0.78228316  0.55152363  0.05323469  1
  O  O33  1  0.28215462  0.04026172  0.79199658  1
  O  O34  1  0.28187900  0.03789337  0.24398581  1
  O  O35  1  0.58843898  0.33573943  0.94675830  1
  O  O36  1  0.78266349  0.55025922  0.49621414  1
  O  O37  1  0.58873243  0.33552941  0.38752110  1
  O  O38  1  0.95029464  0.69525719  0.34930370  1
  O  O39  1  0.45761638  0.17993562  0.08935758  1
  O  O40  1  0.44684724  0.18039741  0.58855195  1
  O  O41  1  0.98196585  0.68026204  0.83676920  1
  O  O42  1  0.91136199  0.16268799  0.36028725  1
  O  O43  1  0.90950126  0.16216986  0.80083395  1
