# generated using pymatgen
data_KTiF4
_symmetry_space_group_name_H-M   'P 1'
_cell_length_a   4.01223537
_cell_length_b   7.83330172
_cell_length_c   12.43782244
_cell_angle_alpha   142.30298835
_cell_angle_beta   89.29286964
_cell_angle_gamma   75.76168944
_symmetry_Int_Tables_number   1
_chemical_formula_structural   KTiF4
_chemical_formula_sum   'K2 Ti2 F8'
_cell_volume   217.10928778
_cell_formula_units_Z   2
loop_
 _symmetry_equiv_pos_site_id
 _symmetry_equiv_pos_as_xyz
  1  'x, y, z'
loop_
 _atom_site_type_symbol
 _atom_site_label
 _atom_site_symmetry_multiplicity
 _atom_site_fract_x
 _atom_site_fract_y
 _atom_site_fract_z
 _atom_site_occupancy
  K  K0  1  0.98680738  0.50069303  0.19172748  1
  K  K1  1  0.99857384  0.49926569  0.80730264  1
  Ti  Ti2  1  0.18496486  0.11976997  0.31076966  1
  Ti  Ti3  1  0.80502673  0.88025872  0.69097258  1
  F  F4  1  0.99026578  0.50045153  0.60027380  1
  F  F5  1  0.31998701  0.85422073  0.05446233  1
  F  F6  1  0.67566531  0.14343995  0.69875018  1
  F  F7  1  0.69093888  0.10764763  0.30516641  1
  F  F8  1  0.29891824  0.89233817  0.69774858  1
  F  F9  1  0.31096226  0.85774704  0.30385829  1
  F  F10  1  0.66729707  0.14464062  0.94695553  1
  F  F11  1  0.00413064  0.49952693  0.40096853  1
