# generated using pymatgen
data_Sn2N2O
_symmetry_space_group_name_H-M   'P 1'
_cell_length_a   8.84809382
_cell_length_b   8.85839222
_cell_length_c   8.87024964
_cell_angle_alpha   109.59676064
_cell_angle_beta   109.54555089
_cell_angle_gamma   109.29541497
_symmetry_Int_Tables_number   1
_chemical_formula_structural   Sn2N2O
_chemical_formula_sum   'Sn16 N16 O8'
_cell_volume   535.04086148
_cell_formula_units_Z   8
loop_
 _symmetry_equiv_pos_site_id
 _symmetry_equiv_pos_as_xyz
  1  'x, y, z'
loop_
 _atom_site_type_symbol
 _atom_site_label
 _atom_site_symmetry_multiplicity
 _atom_site_fract_x
 _atom_site_fract_y
 _atom_site_fract_z
 _atom_site_occupancy
  Sn  Sn0  1  0.49942179  0.99387167  0.99150262  1
  Sn  Sn1  1  0.75798341  0.29091903  0.54266765  1
  Sn  Sn2  1  0.21631388  0.95449303  0.25037052  1
  Sn  Sn3  1  0.71660363  0.46359520  0.24960304  1
  Sn  Sn4  1  0.25015657  0.21668826  0.95807414  1
  Sn  Sn5  1  0.46692084  0.24947778  0.72364249  1
  Sn  Sn6  1  0.99281241  0.50463942  0.99693402  1
  Sn  Sn7  1  0.96937983  0.25570443  0.21865225  1
  Sn  Sn8  1  0.01109278  0.00378212  0.51213746  1
  Sn  Sn9  1  0.50381697  0.50868404  0.50863707  1
  Sn  Sn10  1  0.02589764  0.74310489  0.77471924  1
  Sn  Sn11  1  0.52602783  0.75242961  0.28044902  1
  Sn  Sn12  1  0.74494513  0.78499045  0.02279367  1
  Sn  Sn13  1  0.77979902  0.02811334  0.75097773  1
  Sn  Sn14  1  0.28227872  0.53265925  0.74840225  1
  Sn  Sn15  1  0.24807784  0.71371393  0.46334018  1
  N  N16  1  0.74249496  0.00749487  0.96734524  1
  N  N17  1  0.50692861  0.23380662  0.97422003  1
  N  N18  1  0.75918330  0.53143384  0.52238220  1
  N  N19  1  0.72270275  0.25409969  0.76116290  1
  N  N20  1  0.23569568  0.96494531  0.50397915  1
  N  N21  1  0.50555565  0.77180817  0.04551105  1
  N  N22  1  0.26573062  0.72568221  0.22205913  1
  N  N23  1  0.95146422  0.49760735  0.22704998  1
  N  N24  1  0.22895955  0.45099631  0.45395527  1
  N  N25  1  0.54458159  0.53197106  0.76861679  1
  N  N26  1  0.95853571  0.74301914  0.99900028  1
  N  N27  1  0.54358534  0.77465323  0.53817014  1
  N  N28  1  0.99455632  0.96032118  0.73669767  1
  N  N29  1  0.22769898  0.27454164  0.73635057  1
  N  N30  1  0.03634313  0.49527655  0.76686061  1
  N  N31  1  0.26439829  0.77263271  0.72764566  1
  O  O32  1  0.28025492  0.01379642  0.05705416  1
  O  O33  1  0.77223959  0.04049100  0.48664362  1
  O  O34  1  0.73393847  0.21723231  0.27943238  1
  O  O35  1  0.99728156  0.04549691  0.28273713  1
  O  O36  1  0.44902071  0.46454785  0.21827225  1
  O  O37  1  0.77436072  0.73086384  0.27871131  1
  O  O38  1  0.45577316  0.21973384  0.44014967  1
  O  O39  1  0.05719089  0.28068155  0.01309046  1
