# generated using pymatgen
data_Li2Fe3CoO8
_symmetry_space_group_name_H-M   'P 1'
_cell_length_a   8.34687400
_cell_length_b   8.25131700
_cell_length_c   8.27552940
_cell_angle_alpha   89.98215117
_cell_angle_beta   90.00000000
_cell_angle_gamma   90.00000000
_symmetry_Int_Tables_number   1
_chemical_formula_structural   Li2Fe3CoO8
_chemical_formula_sum   'Li8 Fe12 Co4 O32'
_cell_volume   569.95805374
_cell_formula_units_Z   4
loop_
 _symmetry_equiv_pos_site_id
 _symmetry_equiv_pos_as_xyz
  1  'x, y, z'
loop_
 _atom_site_type_symbol
 _atom_site_label
 _atom_site_symmetry_multiplicity
 _atom_site_fract_x
 _atom_site_fract_y
 _atom_site_fract_z
 _atom_site_occupancy
  Li  Li0  1  0.87798300  0.12263200  0.12695500  1
  Li  Li1  1  0.75214900  0.25126800  0.49822500  1
  Li  Li2  1  0.24860200  0.24945700  0.99730000  1
  Li  Li3  1  0.12227600  0.37793000  0.62864000  1
  Li  Li4  1  0.62227600  0.62207000  0.37136000  1
  Li  Li5  1  0.74860200  0.75054300  0.00270000  1
  Li  Li6  1  0.25214900  0.74873200  0.50177500  1
  Li  Li7  1  0.37798300  0.87736800  0.87304500  1
  Fe  Fe8  1  0.62205500  0.12279700  0.87206700  1
  Fe  Fe9  1  0.37831500  0.12202400  0.62884700  1
  Fe  Fe10  1  0.12093300  0.12445800  0.37411200  1
  Fe  Fe11  1  0.87751500  0.37776500  0.87280500  1
  Fe  Fe12  1  0.62447400  0.37641200  0.12879200  1
  Fe  Fe13  1  0.37606500  0.37971400  0.37488500  1
  Fe  Fe14  1  0.87606500  0.62028600  0.62511500  1
  Fe  Fe15  1  0.12447400  0.62358800  0.87120800  1
  Fe  Fe16  1  0.37751500  0.62223500  0.12719500  1
  Fe  Fe17  1  0.62093300  0.87554200  0.62588800  1
  Fe  Fe18  1  0.87831500  0.87797600  0.37115300  1
  Fe  Fe19  1  0.12205500  0.87720300  0.12793300  1
  Co  Co20  1  0.49969600  0.99899100  0.24862000  1
  Co  Co21  1  0.49920800  0.50126100  0.75080100  1
  Co  Co22  1  0.99920800  0.49873900  0.24919900  1
  Co  Co23  1  0.99969600  0.00100900  0.75138000  1
  O  O24  1  0.12643600  0.10224300  0.13844900  1
  O  O25  1  0.89170800  0.10539000  0.37777600  1
  O  O26  1  0.61098800  0.11443400  0.63750800  1
  O  O27  1  0.39578100  0.12762700  0.85514500  1
  O  O28  1  0.14738200  0.12178900  0.61395700  1
  O  O29  1  0.36422000  0.13445100  0.38988700  1
  O  O30  1  0.62271800  0.13610700  0.10439100  1
  O  O31  1  0.85816600  0.14489100  0.87232700  1
  O  O32  1  0.13949600  0.36088300  0.37410900  1
  O  O33  1  0.37701800  0.35772200  0.61286800  1
  O  O34  1  0.63826800  0.36192200  0.88667300  1
  O  O35  1  0.86023600  0.37941200  0.10705600  1
  O  O36  1  0.61124900  0.37249800  0.35459700  1
  O  O37  1  0.38264100  0.38914400  0.13115300  1
  O  O38  1  0.10290000  0.39563800  0.87771800  1
  O  O39  1  0.87343800  0.39611900  0.64511100  1
  O  O40  1  0.37343800  0.60388100  0.35488900  1
  O  O41  1  0.60290000  0.60436200  0.12228200  1
  O  O42  1  0.88264100  0.61085600  0.86884700  1
  O  O43  1  0.11124900  0.62750200  0.64540300  1
  O  O44  1  0.36023600  0.62058800  0.89294400  1
  O  O45  1  0.13826800  0.63807800  0.11332700  1
  O  O46  1  0.87701800  0.64227800  0.38713200  1
  O  O47  1  0.63949600  0.63911700  0.62589100  1
  O  O48  1  0.35816600  0.85510900  0.12767300  1
  O  O49  1  0.12271800  0.86389300  0.89560900  1
  O  O50  1  0.86422000  0.86554900  0.61011300  1
  O  O51  1  0.64738200  0.87821100  0.38604300  1
  O  O52  1  0.89578100  0.87237300  0.14485500  1
  O  O53  1  0.11098800  0.88556600  0.36249200  1
  O  O54  1  0.39170800  0.89461000  0.62222400  1
  O  O55  1  0.62643600  0.89775700  0.86155100  1
