# generated using pymatgen
data_Na2P2H12O11F2
_symmetry_space_group_name_H-M   'P 1'
_cell_length_a   5.38995501
_cell_length_b   10.00799099
_cell_length_c   12.78599268
_cell_angle_alpha   71.07823923
_cell_angle_beta   90.01049557
_cell_angle_gamma   74.17789673
_symmetry_Int_Tables_number   1
_chemical_formula_structural   Na2P2H12O11F2
_chemical_formula_sum   'Na4 P4 H24 O22 F4'
_cell_volume   624.73918474
_cell_formula_units_Z   2
loop_
 _symmetry_equiv_pos_site_id
 _symmetry_equiv_pos_as_xyz
  1  'x, y, z'
loop_
 _atom_site_type_symbol
 _atom_site_label
 _atom_site_symmetry_multiplicity
 _atom_site_fract_x
 _atom_site_fract_y
 _atom_site_fract_z
 _atom_site_occupancy
  Na  Na0  1  0.10032768  0.95842123  0.87874334  1
  Na  Na1  1  0.94210909  0.95700405  0.37978734  1
  Na  Na2  1  0.05899723  0.04331673  0.62156487  1
  Na  Na3  1  0.89111659  0.04433608  0.11848871  1
  P  P4  1  0.00161461  0.67496229  0.78094422  1
  P  P5  1  0.32217766  0.67379549  0.28097623  1
  P  P6  1  0.67593631  0.32562388  0.72100118  1
  P  P7  1  0.99883477  0.32395962  0.22186247  1
  H  H8  1  0.57426766  0.92298190  0.75307358  1
  H  H9  1  0.55673710  0.69908656  0.93850979  1
  H  H10  1  0.44172830  0.84008551  0.51534783  1
  H  H11  1  0.23659740  0.77521431  0.58630035  1
  H  H12  1  0.50412783  0.91821932  0.25892175  1
  H  H13  1  0.87389032  0.69885062  0.55234090  1
  H  H14  1  0.73276974  0.53516401  0.81343769  1
  H  H15  1  0.75208801  0.70341862  0.43816285  1
  H  H16  1  0.71929666  0.84042971  0.01277910  1
  H  H17  1  0.98518228  0.77908082  0.08580602  1
  H  H18  1  0.26573832  0.46471192  0.68929499  1
  H  H19  1  0.56159552  0.30831606  0.95036655  1
  H  H20  1  0.43190530  0.69849855  0.05026757  1
  H  H21  1  0.73171054  0.53630903  0.31348587  1
  H  H22  1  0.00926554  0.22523010  0.91176111  1
  H  H23  1  0.27599764  0.16472783  0.98456628  1
  H  H24  1  0.25185347  0.29652013  0.56573597  1
  H  H25  1  0.27200042  0.46020061  0.18920842  1
  H  H26  1  0.13035068  0.30393599  0.45097362  1
  H  H27  1  0.48886801  0.08428183  0.74386925  1
  H  H28  1  0.76714079  0.22660139  0.41514019  1
  H  H29  1  0.56288992  0.16057377  0.48605382  1
  H  H30  1  0.44190227  0.29843271  0.06457568  1
  H  H31  1  0.42935293  0.08113048  0.24687247  1
  O  O32  1  0.47876403  0.76236366  0.98190598  1
  O  O33  1  0.96615252  0.83320317  0.76843010  1
  O  O34  1  0.26070588  0.86710080  0.53452688  1
  O  O35  1  0.74293469  0.63438418  0.81728794  1
  O  O36  1  0.76160770  0.76410504  0.48375103  1
  O  O37  1  0.19746294  0.83274512  0.26675132  1
  O  O38  1  0.10479213  0.62292409  0.68569532  1
  O  O39  1  0.86996094  0.86991078  0.03230129  1
  O  O40  1  0.62211738  0.63502758  0.31752451  1
  O  O41  1  0.72686298  0.37848434  0.81567274  1
  O  O42  1  0.27380283  0.62239501  0.18528734  1
  O  O43  1  0.37614819  0.36630015  0.68404791  1
  O  O44  1  0.12698652  0.13466483  0.96427936  1
  O  O45  1  0.89759562  0.37574643  0.31734529  1
  O  O46  1  0.79925932  0.16676145  0.73505851  1
  O  O47  1  0.23969327  0.23687948  0.51916021  1
  O  O48  1  0.26023963  0.36196125  0.18515608  1
  O  O49  1  0.74298868  0.13414040  0.46612892  1
  O  O50  1  0.41646926  0.00297866  0.74781722  1
  O  O51  1  0.03209733  0.16618199  0.23319534  1
  O  O52  1  0.51629193  0.24031571  0.01740101  1
  O  O53  1  0.58176056  0.99892007  0.25151597  1
  F  F54  1  0.20215046  0.57351886  0.88706084  1
  F  F55  1  0.22133883  0.57382372  0.38756285  1
  F  F56  1  0.77899059  0.42391887  0.61497955  1
  F  F57  1  0.79843218  0.42508819  0.11580147  1
