# generated using pymatgen
data_V2O3F
_symmetry_space_group_name_H-M   'P 1'
_cell_length_a   5.59270357
_cell_length_b   9.83988885
_cell_length_c   5.57097002
_cell_angle_alpha   78.16779608
_cell_angle_beta   65.54843307
_cell_angle_gamma   97.73760321
_symmetry_Int_Tables_number   1
_chemical_formula_structural   V2O3F
_chemical_formula_sum   'V8 O12 F4'
_cell_volume   264.73293290
_cell_formula_units_Z   4
loop_
 _symmetry_equiv_pos_site_id
 _symmetry_equiv_pos_as_xyz
  1  'x, y, z'
loop_
 _atom_site_type_symbol
 _atom_site_label
 _atom_site_symmetry_multiplicity
 _atom_site_fract_x
 _atom_site_fract_y
 _atom_site_fract_z
 _atom_site_occupancy
  V  V0  1  0.91267034  0.77372323  0.63669328  1
  V  V1  1  0.62597840  0.25028000  0.87565400  1
  V  V2  1  0.51901983  0.00002421  0.49808195  1
  V  V3  1  0.73272764  0.50031697  0.25325343  1
  V  V4  1  0.25048406  0.49794808  0.74110744  1
  V  V5  1  0.33916110  0.72671427  0.11469017  1
  V  V6  1  0.12576808  0.25027562  0.37582969  1
  V  V7  1  0.00156100  0.00260627  0.01031375  1
  O  O8  1  0.92706735  0.15330394  0.77302542  1
  O  O9  1  0.58197676  0.84667649  0.73271382  1
  O  O10  1  0.32501384  0.34725207  0.97850716  1
  O  O11  1  0.81259838  0.34598552  0.49619813  1
  O  O12  1  0.90680359  0.10303938  0.30159938  1
  O  O13  1  0.34488778  0.39748856  0.44986883  1
  O  O14  1  0.11413438  0.90559734  0.70301921  1
  O  O15  1  0.17134209  0.65401014  0.51918391  1
  O  O16  1  0.66971903  0.65367223  0.01826331  1
  O  O17  1  0.43890545  0.15428610  0.25553273  1
  O  O18  1  0.08074731  0.84667138  0.23220527  1
  O  O19  1  0.13752268  0.59496369  0.04856094  1
  F  F20  1  0.84390839  0.39771860  0.95035849  1
  F  F21  1  0.65091386  0.60332280  0.54982325  1
  F  F22  1  0.40817769  0.10251827  0.80115321  1
  F  F23  1  0.60114899  0.89736585  0.20090623  1
