# generated using pymatgen
data_LiMn2OF5
_symmetry_space_group_name_H-M   'P 1'
_cell_length_a   4.67435300
_cell_length_b   5.02323200
_cell_length_c   17.46189700
_cell_angle_alpha   90.00000000
_cell_angle_beta   90.00000000
_cell_angle_gamma   90.00000000
_symmetry_Int_Tables_number   1
_chemical_formula_structural   LiMn2OF5
_chemical_formula_sum   'Li4 Mn8 O4 F20'
_cell_volume   410.01162032
_cell_formula_units_Z   4
loop_
 _symmetry_equiv_pos_site_id
 _symmetry_equiv_pos_as_xyz
  1  'x, y, z'
loop_
 _atom_site_type_symbol
 _atom_site_label
 _atom_site_symmetry_multiplicity
 _atom_site_fract_x
 _atom_site_fract_y
 _atom_site_fract_z
 _atom_site_occupancy
  Li  Li0  1  0.74600500  0.75443500  0.36555100  1
  Li  Li1  1  0.74600500  0.25443500  0.13444900  1
  Li  Li2  1  0.25399500  0.75443500  0.86555100  1
  Li  Li3  1  0.25399500  0.25443500  0.63444900  1
  Mn  Mn4  1  0.72243900  0.24445500  0.47176600  1
  Mn  Mn5  1  0.75582200  0.74825700  0.69448000  1
  Mn  Mn6  1  0.72243900  0.74445500  0.02823400  1
  Mn  Mn7  1  0.75582200  0.24825700  0.80552000  1
  Mn  Mn8  1  0.24417800  0.74825700  0.19448000  1
  Mn  Mn9  1  0.27756100  0.24445500  0.97176600  1
  Mn  Mn10  1  0.24417800  0.24825700  0.30552000  1
  Mn  Mn11  1  0.27756100  0.74445500  0.52823400  1
  O  O12  1  0.50499000  0.93411000  0.46036600  1
  O  O13  1  0.50499000  0.43411000  0.03963400  1
  O  O14  1  0.49501000  0.43411000  0.53963400  1
  O  O15  1  0.49501000  0.93411000  0.96036600  1
  F  F16  1  0.51675700  0.91703400  0.12104600  1
  F  F17  1  0.51675700  0.41703400  0.37895400  1
  F  F18  1  0.52637700  0.42737200  0.70984700  1
  F  F19  1  0.52637700  0.92737200  0.79015300  1
  F  F20  1  0.47362300  0.92737200  0.29015300  1
  F  F21  1  0.47362300  0.42737200  0.20984700  1
  F  F22  1  0.48324300  0.41703400  0.87895400  1
  F  F23  1  0.48324300  0.91703400  0.62104600  1
  F  F24  1  0.01426600  0.55983100  0.95864100  1
  F  F25  1  0.01426600  0.05983100  0.54135900  1
  F  F26  1  0.03765900  0.08757800  0.88393200  1
  F  F27  1  0.03765900  0.58757800  0.61606800  1
  F  F28  1  0.02340600  0.57693000  0.28748700  1
  F  F29  1  0.02340600  0.07693000  0.21251300  1
  F  F30  1  0.97659400  0.07693000  0.71251300  1
  F  F31  1  0.97659400  0.57693000  0.78748700  1
  F  F32  1  0.96234100  0.08757800  0.38393200  1
  F  F33  1  0.96234100  0.58757800  0.11606800  1
  F  F34  1  0.98573400  0.55983100  0.45864100  1
  F  F35  1  0.98573400  0.05983100  0.04135900  1
