# generated using pymatgen
data_Na3Ni2P2(CO7)2
_symmetry_space_group_name_H-M   'P 1'
_cell_length_a   10.22929653
_cell_length_b   10.50188353
_cell_length_c   6.50215600
_cell_angle_alpha   90.00000000
_cell_angle_beta   90.00000000
_cell_angle_gamma   59.58384375
_symmetry_Int_Tables_number   1
_chemical_formula_structural   Na3Ni2P2(CO7)2
_chemical_formula_sum   'Na6 Ni4 P4 C4 O28'
_cell_volume   602.37156934
_cell_formula_units_Z   2
loop_
 _symmetry_equiv_pos_site_id
 _symmetry_equiv_pos_as_xyz
  1  'x, y, z'
loop_
 _atom_site_type_symbol
 _atom_site_label
 _atom_site_symmetry_multiplicity
 _atom_site_fract_x
 _atom_site_fract_y
 _atom_site_fract_z
 _atom_site_occupancy
  Na  Na0  1  0.00594100  0.24256600  0.46265800  1
  Na  Na1  1  0.49670700  0.25778900  0.98775800  1
  Na  Na2  1  0.49999400  0.25168900  0.51530000  1
  Na  Na3  1  0.50000600  0.74831100  0.01530000  1
  Na  Na4  1  0.50329300  0.74221100  0.48775800  1
  Na  Na5  1  0.99405900  0.75743400  0.96265800  1
  Ni  Ni6  1  0.27725800  0.06787300  0.75604400  1
  Ni  Ni7  1  0.21388700  0.43506500  0.25508100  1
  Ni  Ni8  1  0.78611300  0.56493500  0.75508100  1
  Ni  Ni9  1  0.72274200  0.93212700  0.25604400  1
  P  P10  1  0.35742300  0.06774200  0.25221400  1
  P  P11  1  0.14579000  0.42369200  0.75338200  1
  P  P12  1  0.85421000  0.57630800  0.25338200  1
  P  P13  1  0.64257700  0.93225800  0.75221400  1
  C  C14  1  0.81736600  0.10441100  0.24494600  1
  C  C15  1  0.31776000  0.60079200  0.25019500  1
  C  C16  1  0.68224000  0.39920800  0.75019500  1
  C  C17  1  0.18263400  0.89558900  0.74494600  1
  O  O18  1  0.09508200  0.03770600  0.74282800  1
  O  O19  1  0.27823800  0.04650200  0.06442000  1
  O  O20  1  0.26884300  0.05845600  0.43902600  1
  O  O21  1  0.13860800  0.28070500  0.74559200  1
  O  O22  1  0.01963300  0.44321000  0.25984700  1
  O  O23  1  0.47461300  0.06457800  0.75957300  1
  O  O24  1  0.35987700  0.21380700  0.24963100  1
  O  O25  1  0.23461200  0.43268300  0.94069600  1
  O  O26  1  0.23538100  0.43290100  0.56690800  1
  O  O27  1  0.67234000  0.14639900  0.24804100  1
  O  O28  1  0.17372300  0.64638600  0.24448300  1
  O  O29  1  0.40157000  0.45667300  0.25561100  1
  O  O30  1  0.62789200  0.31512300  0.75014400  1
  O  O31  1  0.13711400  0.80523600  0.74577600  1
  O  O32  1  0.86288600  0.19476400  0.24577600  1
  O  O33  1  0.37210800  0.68487700  0.25014400  1
  O  O34  1  0.59843000  0.54332700  0.75561100  1
  O  O35  1  0.82627700  0.35361400  0.74448300  1
  O  O36  1  0.32766000  0.85360100  0.74804100  1
  O  O37  1  0.76461900  0.56709900  0.06690800  1
  O  O38  1  0.76538800  0.56731700  0.44069600  1
  O  O39  1  0.64012300  0.78619300  0.74963100  1
  O  O40  1  0.52538700  0.93542200  0.25957300  1
  O  O41  1  0.98036700  0.55679000  0.75984700  1
  O  O42  1  0.86139200  0.71929500  0.24559200  1
  O  O43  1  0.72176200  0.95349800  0.56442000  1
  O  O44  1  0.73115700  0.94154400  0.93902600  1
  O  O45  1  0.90491800  0.96229400  0.24282800  1
