# generated using pymatgen
data_Mn2O3
_symmetry_space_group_name_H-M   'P 1'
_cell_length_a   5.17242600
_cell_length_b   5.54988483
_cell_length_c   5.17242036
_cell_angle_alpha   117.77431095
_cell_angle_beta   60.00020090
_cell_angle_gamma   117.77435473
_symmetry_Int_Tables_number   1
_chemical_formula_structural   Mn2O3
_chemical_formula_sum   'Mn4 O6'
_cell_volume   108.38682258
_cell_formula_units_Z   2
loop_
 _symmetry_equiv_pos_site_id
 _symmetry_equiv_pos_as_xyz
  1  'x, y, z'
loop_
 _atom_site_type_symbol
 _atom_site_label
 _atom_site_symmetry_multiplicity
 _atom_site_fract_x
 _atom_site_fract_y
 _atom_site_fract_z
 _atom_site_occupancy
  Mn  Mn0  1  0.14948300  0.44843600  0.14947900  1
  Mn  Mn1  1  0.64947600  0.94842100  0.64947300  1
  Mn  Mn2  1  0.35052500  0.05158900  0.35053200  1
  Mn  Mn3  1  0.85051600  0.55156100  0.85051700  1
  O  O4  1  0.24999200  0.74999300  0.55327600  1
  O  O5  1  0.05327300  0.25000500  0.75000500  1
  O  O6  1  0.44672900  0.25000500  0.05327000  1
  O  O7  1  0.55327400  0.74999300  0.94672600  1
  O  O8  1  0.94672400  0.74999300  0.24999600  1
  O  O9  1  0.75000800  0.25000500  0.44672600  1
