# generated using pymatgen
data_V3(PO4)2
_symmetry_space_group_name_H-M   'P 1'
_cell_length_a   8.79027991
_cell_length_b   9.34978781
_cell_length_c   9.70916895
_cell_angle_alpha   116.71194822
_cell_angle_beta   92.42121237
_cell_angle_gamma   113.47214694
_symmetry_Int_Tables_number   1
_chemical_formula_structural   V3(PO4)2
_chemical_formula_sum   'V12 P8 O32'
_cell_volume   629.53081151
_cell_formula_units_Z   4
loop_
 _symmetry_equiv_pos_site_id
 _symmetry_equiv_pos_as_xyz
  1  'x, y, z'
loop_
 _atom_site_type_symbol
 _atom_site_label
 _atom_site_symmetry_multiplicity
 _atom_site_fract_x
 _atom_site_fract_y
 _atom_site_fract_z
 _atom_site_occupancy
  V  V0  1  0.00152868  0.26826855  0.53462457  1
  V  V1  1  0.06983858  0.33979745  0.89229795  1
  V  V2  1  0.11451911  0.18877074  0.16224283  1
  V  V3  1  0.40312152  0.80072167  0.32361630  1
  V  V4  1  0.51885617  0.89289877  0.82568196  1
  V  V5  1  0.39833742  0.47590301  0.73758095  1
  V  V6  1  0.60166258  0.52409699  0.26241905  1
  V  V7  1  0.48114383  0.10710123  0.17431804  1
  V  V8  1  0.59687848  0.19927833  0.67638370  1
  V  V9  1  0.88548089  0.81122926  0.83775717  1
  V  V10  1  0.93016142  0.66020255  0.10770205  1
  V  V11  1  0.99847132  0.73173145  0.46537543  1
  P  P12  1  0.17565065  0.68489704  0.93190222  1
  P  P13  1  0.27477663  0.56312237  0.44991381  1
  P  P14  1  0.23626043  0.06392106  0.39785153  1
  P  P15  1  0.31658298  0.17088976  0.90376089  1
  P  P16  1  0.68341702  0.82911024  0.09623911  1
  P  P17  1  0.76373957  0.93607794  0.60214847  1
  P  P18  1  0.72522337  0.43687763  0.55008619  1
  P  P19  1  0.82434935  0.31510296  0.06809778  1
  O  O20  1  0.07217553  0.88305741  0.34623212  1
  O  O21  1  0.00524996  0.69455123  0.91596658  1
  O  O22  1  0.22653502  0.70902237  0.45765791  1
  O  O23  1  0.19016198  0.65673501  0.07993751  1
  O  O24  1  0.16132258  0.50660049  0.78415493  1
  O  O25  1  0.32605057  0.85346738  0.95073044  1
  O  O26  1  0.11017121  0.38082462  0.39384959  1
  O  O27  1  0.13165823  0.04423980  0.89797123  1
  O  O28  1  0.38640137  0.62534530  0.61250301  1
  O  O29  1  0.22150666  0.22224833  0.53513467  1
  O  O30  1  0.36902484  0.53421892  0.31351981  1
  O  O31  1  0.30855423  0.32021916  0.87550463  1
  O  O32  1  0.60049505  0.94372018  0.54742237  1
  O  O33  1  0.59569299  0.92502320  0.21427197  1
  O  O34  1  0.24905744  0.08476735  0.24848134  1
  O  O35  1  0.57911325  0.74048607  0.91904443  1
  O  O36  1  0.42088675  0.25951393  0.08095557  1
  O  O37  1  0.75094256  0.91523265  0.75151866  1
  O  O38  1  0.40430701  0.07497680  0.78572803  1
  O  O39  1  0.39950495  0.05627982  0.45257763  1
  O  O40  1  0.69144577  0.67978084  0.12449537  1
  O  O41  1  0.63097516  0.46578108  0.68648019  1
  O  O42  1  0.77849334  0.77775167  0.46486533  1
  O  O43  1  0.61359863  0.37465470  0.38749699  1
  O  O44  1  0.86834177  0.95576020  0.10202877  1
  O  O45  1  0.88982879  0.61917538  0.60615041  1
  O  O46  1  0.67394943  0.14653262  0.04926956  1
  O  O47  1  0.83867742  0.49339951  0.21584507  1
  O  O48  1  0.80983802  0.34326499  0.92006249  1
  O  O49  1  0.77346498  0.29097763  0.54234109  1
  O  O50  1  0.99475004  0.30544877  0.08403342  1
  O  O51  1  0.92782447  0.11694259  0.65376788  1
