# generated using pymatgen
data_Na3MnPCO7
_symmetry_space_group_name_H-M   'P 1'
_cell_length_a   5.32203306
_cell_length_b   11.32042220
_cell_length_c   11.32132381
_cell_angle_alpha   106.85414413
_cell_angle_beta   90.00267858
_cell_angle_gamma   90.00517996
_symmetry_Int_Tables_number   1
_chemical_formula_structural   Na3MnPCO7
_chemical_formula_sum   'Na12 Mn4 P4 C4 O28'
_cell_volume   652.78502872
_cell_formula_units_Z   4
loop_
 _symmetry_equiv_pos_site_id
 _symmetry_equiv_pos_as_xyz
  1  'x, y, z'
loop_
 _atom_site_type_symbol
 _atom_site_label
 _atom_site_symmetry_multiplicity
 _atom_site_fract_x
 _atom_site_fract_y
 _atom_site_fract_z
 _atom_site_occupancy
  Na  Na0  1  0.00239200  0.24110900  0.24309100  1
  Na  Na1  1  0.00218500  0.74113500  0.74308000  1
  Na  Na2  1  0.99753000  0.99309900  0.99112700  1
  Na  Na3  1  0.99768400  0.49306100  0.49112600  1
  Na  Na4  1  0.44201700  0.02912600  0.19545400  1
  Na  Na5  1  0.44208000  0.52913200  0.69548100  1
  Na  Na6  1  0.55782700  0.94548200  0.77915000  1
  Na  Na7  1  0.55773900  0.44552400  0.27907700  1
  Na  Na8  1  0.49518600  0.99739200  0.49264400  1
  Na  Na9  1  0.49490700  0.49744500  0.99256300  1
  Na  Na10  1  0.50532000  0.24252800  0.74738500  1
  Na  Na11  1  0.50483300  0.74266100  0.24739600  1
  Mn  Mn12  1  0.02089200  0.72205600  0.01626900  1
  Mn  Mn13  1  0.97960600  0.26628300  0.97206800  1
  Mn  Mn14  1  0.02174800  0.22208600  0.51623400  1
  Mn  Mn15  1  0.97856800  0.76620700  0.47206000  1
  P  P16  1  0.98379700  0.94745500  0.29041100  1
  P  P17  1  0.98397800  0.44749300  0.79041200  1
  P  P18  1  0.01608000  0.04042400  0.69748300  1
  P  P19  1  0.01586900  0.54051600  0.19748900  1
  C  C20  1  0.49907800  0.29370500  0.44352100  1
  C  C21  1  0.49838800  0.79370100  0.94341700  1
  C  C22  1  0.50113300  0.69347900  0.54377500  1
  C  C23  1  0.50161400  0.19345000  0.04374100  1
  O  O24  1  0.32230800  0.34312300  0.39389300  1
  O  O25  1  0.32171700  0.84327000  0.89389700  1
  O  O26  1  0.67794100  0.64387300  0.59320000  1
  O  O27  1  0.67820300  0.14389400  0.09333800  1
  O  O28  1  0.73517000  0.31306300  0.42063100  1
  O  O29  1  0.73442900  0.81291300  0.92031200  1
  O  O30  1  0.26504300  0.67049900  0.56308000  1
  O  O31  1  0.26542000  0.17043600  0.06302300  1
  O  O32  1  0.06598000  0.90189200  0.15169500  1
  O  O33  1  0.06606500  0.40190600  0.65170700  1
  O  O34  1  0.93395700  0.90169800  0.65190800  1
  O  O35  1  0.93400600  0.40173500  0.15191200  1
  O  O36  1  0.07477700  0.08474700  0.33778800  1
  O  O37  1  0.07476300  0.58479200  0.83780100  1
  O  O38  1  0.92525600  0.08782300  0.83477700  1
  O  O39  1  0.92520600  0.58778500  0.33479800  1
  O  O40  1  0.44357900  0.22670700  0.51485000  1
  O  O41  1  0.44315500  0.72674600  0.01480600  1
  O  O42  1  0.55652500  0.76480800  0.47675000  1
  O  O43  1  0.55690400  0.26479700  0.97676400  1
  O  O44  1  0.69736700  0.93665100  0.30313800  1
  O  O45  1  0.69759600  0.43663200  0.80312600  1
  O  O46  1  0.30248100  0.05312500  0.68664100  1
  O  O47  1  0.30222400  0.55335000  0.18657900  1
  O  O48  1  0.12624800  0.87042500  0.36352500  1
  O  O49  1  0.12675100  0.37060700  0.86361100  1
  O  O50  1  0.87356400  0.11357900  0.62049800  1
  O  O51  1  0.87291500  0.61377300  0.12069500  1
