# generated using pymatgen
data_Mn3(PO4)2
_symmetry_space_group_name_H-M   'P 1'
_cell_length_a   4.95130307
_cell_length_b   10.71851213
_cell_length_c   6.25483401
_cell_angle_alpha   90.33437953
_cell_angle_beta   90.01189316
_cell_angle_gamma   90.01556670
_symmetry_Int_Tables_number   1
_chemical_formula_structural   Mn3(PO4)2
_chemical_formula_sum   'Mn6 P4 O16'
_cell_volume   331.94213412
_cell_formula_units_Z   2
loop_
 _symmetry_equiv_pos_site_id
 _symmetry_equiv_pos_as_xyz
  1  'x, y, z'
loop_
 _atom_site_type_symbol
 _atom_site_label
 _atom_site_symmetry_multiplicity
 _atom_site_fract_x
 _atom_site_fract_y
 _atom_site_fract_z
 _atom_site_occupancy
  Mn  Mn0  1  0.00022500  0.99990000  0.49970000  1
  Mn  Mn1  1  0.98832100  0.28251600  0.23488600  1
  Mn  Mn2  1  0.01164700  0.71763500  0.76525000  1
  Mn  Mn3  1  0.49966200  0.49997600  0.50027400  1
  Mn  Mn4  1  0.51207800  0.78252400  0.23471700  1
  Mn  Mn5  1  0.48818600  0.21747900  0.76559400  1
  P  P6  1  0.06851100  0.60115200  0.26143800  1
  P  P7  1  0.43154000  0.10113400  0.26146800  1
  P  P8  1  0.56862400  0.89892700  0.73843900  1
  P  P9  1  0.93126900  0.39883300  0.73852900  1
  O  O10  1  0.17450300  0.68090900  0.07306900  1
  O  O11  1  0.32549100  0.18083200  0.07308700  1
  O  O12  1  0.67450000  0.81917200  0.92684700  1
  O  O13  1  0.82548200  0.31907100  0.92693100  1
  O  O14  1  0.32401200  0.96494400  0.25303300  1
  O  O15  1  0.17593900  0.46498700  0.25309000  1
  O  O16  1  0.82403200  0.53500800  0.74690900  1
  O  O17  1  0.67605900  0.03504700  0.74683600  1
  O  O18  1  0.75791000  0.60762100  0.28006700  1
  O  O19  1  0.74211400  0.10755200  0.28000600  1
  O  O20  1  0.25792900  0.89243300  0.71992000  1
  O  O21  1  0.24197700  0.39233100  0.72001100  1
  O  O22  1  0.21701900  0.66089000  0.46391600  1
  O  O23  1  0.28303000  0.16084500  0.46387900  1
  O  O24  1  0.71702700  0.83917200  0.53602700  1
  O  O25  1  0.78291400  0.33911000  0.53607600  1
