# generated using pymatgen
data_Li2Co3SnO8
_symmetry_space_group_name_H-M   'P 1'
_cell_length_a   5.76176137
_cell_length_b   5.76176137
_cell_length_c   9.47280748
_cell_angle_alpha   89.96650599
_cell_angle_beta   89.96650599
_cell_angle_gamma   120.01648092
_symmetry_Int_Tables_number   1
_chemical_formula_structural   Li2Co3SnO8
_chemical_formula_sum   'Li4 Co6 Sn2 O16'
_cell_volume   272.29986859
_cell_formula_units_Z   2
loop_
 _symmetry_equiv_pos_site_id
 _symmetry_equiv_pos_as_xyz
  1  'x, y, z'
loop_
 _atom_site_type_symbol
 _atom_site_label
 _atom_site_symmetry_multiplicity
 _atom_site_fract_x
 _atom_site_fract_y
 _atom_site_fract_z
 _atom_site_occupancy
  Li  Li0  1  0.33353600  0.66859100  0.89069900  1
  Li  Li1  1  0.00241300  0.00107200  0.99628800  1
  Li  Li2  1  0.00107200  0.00241300  0.49628800  1
  Li  Li3  1  0.66859100  0.33353600  0.39069900  1
  Co  Co4  1  0.17071800  0.33916600  0.21576200  1
  Co  Co5  1  0.66281200  0.83067200  0.21400400  1
  Co  Co6  1  0.17034200  0.83046700  0.21573000  1
  Co  Co7  1  0.83046700  0.17034200  0.71573000  1
  Co  Co8  1  0.33916600  0.17071800  0.71576200  1
  Co  Co9  1  0.83067200  0.66281200  0.71400400  1
  Sn  Sn10  1  0.32794400  0.66062700  0.49285400  1
  Sn  Sn11  1  0.66062700  0.32794400  0.99285400  1
  O  O12  1  0.15805900  0.31495900  0.60350500  1
  O  O13  1  0.48708300  0.51853000  0.32981300  1
  O  O14  1  0.33551000  0.66730000  0.11244900  1
  O  O15  1  0.99810800  0.99835500  0.30854900  1
  O  O16  1  0.99835500  0.99810800  0.80854900  1
  O  O17  1  0.68567300  0.84010300  0.60518100  1
  O  O18  1  0.03286400  0.51632100  0.33236400  1
  O  O19  1  0.48621700  0.96687000  0.33077400  1
  O  O20  1  0.84083400  0.15455400  0.10594900  1
  O  O21  1  0.15455400  0.84083400  0.60594900  1
  O  O22  1  0.51632100  0.03286400  0.83236400  1
  O  O23  1  0.96687000  0.48621700  0.83077400  1
  O  O24  1  0.66730000  0.33551000  0.61244900  1
  O  O25  1  0.31495900  0.15805900  0.10350500  1
  O  O26  1  0.51853000  0.48708300  0.82981300  1
  O  O27  1  0.84010300  0.68567300  0.10518100  1
