# generated using pymatgen
data_Ti5V(PO4)6
_symmetry_space_group_name_H-M   'P 1'
_cell_length_a   8.44972173
_cell_length_b   8.75578764
_cell_length_c   8.75578724
_cell_angle_alpha   60.00000286
_cell_angle_beta   58.79437106
_cell_angle_gamma   58.79437798
_symmetry_Int_Tables_number   1
_chemical_formula_structural   Ti5V(PO4)6
_chemical_formula_sum   'Ti5 V1 P6 O24'
_cell_volume   449.52980338
_cell_formula_units_Z   1
loop_
 _symmetry_equiv_pos_site_id
 _symmetry_equiv_pos_as_xyz
  1  'x, y, z'
loop_
 _atom_site_type_symbol
 _atom_site_label
 _atom_site_symmetry_multiplicity
 _atom_site_fract_x
 _atom_site_fract_y
 _atom_site_fract_z
 _atom_site_occupancy
  Ti  Ti0  1  0.00091300  0.99969600  0.99969600  1
  Ti  Ti1  1  0.08149900  0.63950100  0.63950100  1
  Ti  Ti2  1  0.49615100  0.50128300  0.50128300  1
  Ti  Ti3  1  0.42549300  0.85816900  0.85816900  1
  Ti  Ti4  1  0.91897700  0.36034100  0.36034100  1
  V  V5  1  0.58083000  0.13972300  0.13972300  1
  P  P6  1  0.24997400  0.24893200  0.54125500  1
  P  P7  1  0.24997400  0.95983900  0.24893200  1
  P  P8  1  0.24997400  0.54125500  0.95983900  1
  P  P9  1  0.75119000  0.45711400  0.04072600  1
  P  P10  1  0.75119000  0.04072600  0.75097000  1
  P  P11  1  0.75119000  0.75097000  0.45711400  1
  O  O12  1  0.06257500  0.11580600  0.32125300  1
  O  O13  1  0.06257500  0.50036700  0.11580600  1
  O  O14  1  0.06257500  0.32125300  0.50036700  1
  O  O15  1  0.21812800  0.09501200  0.74226000  1
  O  O16  1  0.43581500  0.17957600  0.39088700  1
  O  O17  1  0.27617000  0.40432200  0.56076000  1
  O  O18  1  0.21812800  0.94460100  0.09501200  1
  O  O19  1  0.27617000  0.75875000  0.40432200  1
  O  O20  1  0.56486500  0.61338100  0.99855300  1
  O  O21  1  0.27617000  0.56076000  0.75875000  1
  O  O22  1  0.78737800  0.25847200  0.05392500  1
  O  O23  1  0.56486500  0.99855300  0.82320100  1
  O  O24  1  0.43581500  0.99372300  0.17957600  1
  O  O25  1  0.21812800  0.74226000  0.94460100  1
  O  O26  1  0.71725700  0.44559700  0.24049400  1
  O  O27  1  0.43581500  0.39088700  0.99372300  1
  O  O28  1  0.71725700  0.24049400  0.59665200  1
  O  O29  1  0.78737800  0.05392500  0.90022500  1
  O  O30  1  0.71725700  0.59665200  0.44559700  1
  O  O31  1  0.56486500  0.82320100  0.61338100  1
  O  O32  1  0.78737800  0.90022500  0.25847200  1
  O  O33  1  0.93536100  0.67574200  0.50334800  1
  O  O34  1  0.93536100  0.50334800  0.88554900  1
  O  O35  1  0.93536100  0.88554900  0.67574200  1
