# generated using pymatgen
data_Na3FeBSO7
_symmetry_space_group_name_H-M   'P 1'
_cell_length_a   9.14001137
_cell_length_b   6.78212820
_cell_length_c   5.34350876
_cell_angle_alpha   90.10587836
_cell_angle_beta   88.79702278
_cell_angle_gamma   90.02467358
_symmetry_Int_Tables_number   1
_chemical_formula_structural   Na3FeBSO7
_chemical_formula_sum   'Na6 Fe2 B2 S2 O14'
_cell_volume   331.16371782
_cell_formula_units_Z   2
loop_
 _symmetry_equiv_pos_site_id
 _symmetry_equiv_pos_as_xyz
  1  'x, y, z'
loop_
 _atom_site_type_symbol
 _atom_site_label
 _atom_site_symmetry_multiplicity
 _atom_site_fract_x
 _atom_site_fract_y
 _atom_site_fract_z
 _atom_site_occupancy
  Na  Na0  1  0.06151100  0.24997700  0.74507900  1
  Na  Na1  1  0.23547200  0.98993800  0.24263000  1
  Na  Na2  1  0.23525800  0.51044200  0.24172900  1
  Na  Na3  1  0.76470200  0.48978100  0.75715100  1
  Na  Na4  1  0.76470600  0.01027400  0.75844400  1
  Na  Na5  1  0.93856400  0.75011300  0.25484500  1
  Fe  Fe6  1  0.33480900  0.74936100  0.76479400  1
  Fe  Fe7  1  0.66501700  0.24969300  0.23516500  1
  B  B8  1  0.06297700  0.75017200  0.73256400  1
  B  B9  1  0.93699100  0.25000200  0.26737000  1
  S  S10  1  0.42083200  0.25005200  0.71257300  1
  S  S11  1  0.57919500  0.74989500  0.28741000  1
  O  O12  1  0.08534600  0.25022400  0.28957900  1
  O  O13  1  0.13421200  0.75009700  0.96330900  1
  O  O14  1  0.15936100  0.75033500  0.52283500  1
  O  O15  1  0.33075200  0.07362100  0.78197800  1
  O  O16  1  0.33076700  0.42663600  0.78199000  1
  O  O17  1  0.45114700  0.24981500  0.43581800  1
  O  O18  1  0.43886900  0.74994300  0.15125600  1
  O  O19  1  0.56113600  0.25031700  0.84868700  1
  O  O20  1  0.54884600  0.75006800  0.56418700  1
  O  O21  1  0.66921900  0.57337700  0.21786000  1
  O  O22  1  0.66931500  0.92638200  0.21832900  1
  O  O23  1  0.84062700  0.24908200  0.47716700  1
  O  O24  1  0.86582000  0.25042500  0.03659600  1
  O  O25  1  0.91454800  0.74997300  0.71065500  1
