# generated using pymatgen
data_CoSb(PO4)2
_symmetry_space_group_name_H-M   'P 1'
_cell_length_a   4.96816489
_cell_length_b   20.35745472
_cell_length_c   6.23811300
_cell_angle_alpha   89.99904053
_cell_angle_beta   89.99992451
_cell_angle_gamma   86.78958846
_symmetry_Int_Tables_number   1
_chemical_formula_structural   CoSb(PO4)2
_chemical_formula_sum   'Co4 Sb4 P8 O32'
_cell_volume   629.92754727
_cell_formula_units_Z   4
loop_
 _symmetry_equiv_pos_site_id
 _symmetry_equiv_pos_as_xyz
  1  'x, y, z'
loop_
 _atom_site_type_symbol
 _atom_site_label
 _atom_site_symmetry_multiplicity
 _atom_site_fract_x
 _atom_site_fract_y
 _atom_site_fract_z
 _atom_site_occupancy
  Co  Co0  1  0.44388700  0.61306300  0.75000000  1
  Co  Co1  1  0.55605300  0.88685200  0.25001500  1
  Co  Co2  1  0.44576200  0.11298300  0.74999100  1
  Co  Co3  1  0.55381900  0.38694000  0.25000300  1
  Sb  Sb4  1  0.95549600  0.14111300  0.24998800  1
  Sb  Sb5  1  0.95582400  0.64105000  0.24999000  1
  Sb  Sb6  1  0.04428800  0.35897400  0.75000900  1
  Sb  Sb7  1  0.04420000  0.85895400  0.75001600  1
  P  P8  1  0.41050300  0.04813100  0.25000600  1
  P  P9  1  0.41118700  0.54806900  0.25000000  1
  P  P10  1  0.58933900  0.45191200  0.74999100  1
  P  P11  1  0.58852000  0.95195100  0.74999700  1
  P  P12  1  0.88809500  0.20188700  0.74999100  1
  P  P13  1  0.88747100  0.70182300  0.74999400  1
  P  P14  1  0.11183600  0.29817500  0.25000600  1
  P  P15  1  0.11330400  0.79808400  0.25001400  1
  O  O16  1  0.63231100  0.02453400  0.74998600  1
  O  O17  1  0.63284800  0.52447500  0.74999000  1
  O  O18  1  0.36770100  0.47549900  0.25000400  1
  O  O19  1  0.36706900  0.97557800  0.25000500  1
  O  O20  1  0.71606500  0.05973200  0.25000800  1
  O  O21  1  0.71668100  0.55958600  0.25001400  1
  O  O22  1  0.28368700  0.44037800  0.74998600  1
  O  O23  1  0.28298300  0.94054200  0.74998700  1
  O  O24  1  0.19157700  0.19194800  0.74999300  1
  O  O25  1  0.19126800  0.69204800  0.75000700  1
  O  O26  1  0.80836300  0.30812400  0.25000500  1
  O  O27  1  0.80954800  0.80791100  0.25002000  1
  O  O28  1  0.20303500  0.22392900  0.24996600  1
  O  O29  1  0.20428900  0.72379400  0.24996900  1
  O  O30  1  0.79694900  0.27615800  0.75003400  1
  O  O31  1  0.79550800  0.77594500  0.75003000  1
  O  O32  1  0.25780500  0.08666400  0.05808400  1
  O  O33  1  0.25846800  0.58646200  0.05803800  1
  O  O34  1  0.25780900  0.08666700  0.44192300  1
  O  O35  1  0.25846400  0.58646800  0.44195300  1
  O  O36  1  0.74194700  0.41341800  0.55801800  1
  O  O37  1  0.74097700  0.91356900  0.55795400  1
  O  O38  1  0.74194900  0.41342000  0.94196700  1
  O  O39  1  0.74097700  0.91357500  0.94205100  1
  O  O40  1  0.75026000  0.16680700  0.94498300  1
  O  O41  1  0.75084300  0.66639900  0.94490600  1
  O  O42  1  0.75024600  0.16683800  0.55495700  1
  O  O43  1  0.75086300  0.66642100  0.55503900  1
  O  O44  1  0.24957500  0.33330100  0.05500900  1
  O  O45  1  0.25037600  0.83330300  0.05510600  1
  O  O46  1  0.24958900  0.33327000  0.44504500  1
  O  O47  1  0.25038800  0.83328000  0.44495100  1
