# generated using pymatgen
data_TiFe(PO4)2
_symmetry_space_group_name_H-M   'P 1'
_cell_length_a   6.03003600
_cell_length_b   9.97776287
_cell_length_c   9.99894355
_cell_angle_alpha   89.59156356
_cell_angle_beta   90.00206010
_cell_angle_gamma   89.99840682
_symmetry_Int_Tables_number   1
_chemical_formula_structural   TiFe(PO4)2
_chemical_formula_sum   'Ti4 Fe4 P8 O32'
_cell_volume   601.58384462
_cell_formula_units_Z   4
loop_
 _symmetry_equiv_pos_site_id
 _symmetry_equiv_pos_as_xyz
  1  'x, y, z'
loop_
 _atom_site_type_symbol
 _atom_site_label
 _atom_site_symmetry_multiplicity
 _atom_site_fract_x
 _atom_site_fract_y
 _atom_site_fract_z
 _atom_site_occupancy
  Ti  Ti0  1  0.75000900  0.23359400  0.22352200  1
  Ti  Ti1  1  0.75006200  0.73352200  0.22351700  1
  Ti  Ti2  1  0.24998400  0.26640200  0.77647800  1
  Ti  Ti3  1  0.25003900  0.76642900  0.77648600  1
  Fe  Fe4  1  0.24977200  0.98547200  0.27129600  1
  Fe  Fe5  1  0.75009400  0.51438600  0.72875100  1
  Fe  Fe6  1  0.24991400  0.48552400  0.27135000  1
  Fe  Fe7  1  0.74993700  0.01449600  0.72847200  1
  P  P8  1  0.25000400  0.22192400  0.09738000  1
  P  P9  1  0.25003900  0.72186200  0.09734900  1
  P  P10  1  0.74998300  0.27807000  0.90268100  1
  P  P11  1  0.75000900  0.77815600  0.90268100  1
  P  P12  1  0.75000600  0.44376200  0.39709200  1
  P  P13  1  0.74996300  0.94372500  0.39701100  1
  P  P14  1  0.25001500  0.05625300  0.60291500  1
  P  P15  1  0.25000800  0.55630400  0.60298600  1
  O  O16  1  0.75001700  0.31980800  0.05304200  1
  O  O17  1  0.75002700  0.81984000  0.05305800  1
  O  O18  1  0.24999100  0.18021500  0.94700800  1
  O  O19  1  0.25001700  0.68016100  0.94696900  1
  O  O20  1  0.24998200  0.37276900  0.10739800  1
  O  O21  1  0.25000400  0.87270600  0.10736800  1
  O  O22  1  0.75001100  0.12721600  0.89262700  1
  O  O23  1  0.75002100  0.62731100  0.89268400  1
  O  O24  1  0.75000600  0.09280100  0.35245000  1
  O  O25  1  0.75004200  0.59282600  0.35248300  1
  O  O26  1  0.24999200  0.40721200  0.64752500  1
  O  O27  1  0.24999500  0.90716800  0.64744500  1
  O  O28  1  0.24999500  0.06894300  0.45324000  1
  O  O29  1  0.25001100  0.56894600  0.45325800  1
  O  O30  1  0.74999500  0.43107900  0.54677600  1
  O  O31  1  0.74998000  0.93104500  0.54669400  1
  O  O32  1  0.04603000  0.15297500  0.16881100  1
  O  O33  1  0.04607000  0.65290800  0.16879400  1
  O  O34  1  0.45397900  0.15298000  0.16880500  1
  O  O35  1  0.45401700  0.65290600  0.16877900  1
  O  O36  1  0.54601000  0.34702700  0.83123000  1
  O  O37  1  0.54600000  0.84708300  0.83123800  1
  O  O38  1  0.95396800  0.34702200  0.83123100  1
  O  O39  1  0.95398000  0.84709500  0.83123900  1
  O  O40  1  0.94500200  0.36625700  0.32633100  1
  O  O41  1  0.94499100  0.86623400  0.32627900  1
  O  O42  1  0.55501400  0.36626800  0.32632100  1
  O  O43  1  0.55498800  0.86622800  0.32626100  1
  O  O44  1  0.05498800  0.13376400  0.67362500  1
  O  O45  1  0.05500500  0.63378400  0.67370800  1
  O  O46  1  0.44502600  0.13375800  0.67363000  1
  O  O47  1  0.44500700  0.63378200  0.67372500  1
