# generated using pymatgen
data_Hf2N2O
_symmetry_space_group_name_H-M   'P 1'
_cell_length_a   8.73213377
_cell_length_b   8.72729360
_cell_length_c   8.74173057
_cell_angle_alpha   109.57079967
_cell_angle_beta   109.52522584
_cell_angle_gamma   109.34299771
_symmetry_Int_Tables_number   1
_chemical_formula_structural   Hf2N2O
_chemical_formula_sum   'Hf16 N16 O8'
_cell_volume   512.67016774
_cell_formula_units_Z   8
loop_
 _symmetry_equiv_pos_site_id
 _symmetry_equiv_pos_as_xyz
  1  'x, y, z'
loop_
 _atom_site_type_symbol
 _atom_site_label
 _atom_site_symmetry_multiplicity
 _atom_site_fract_x
 _atom_site_fract_y
 _atom_site_fract_z
 _atom_site_occupancy
  Hf  Hf0  1  0.96061848  0.24289772  0.21908237  1
  Hf  Hf1  1  0.50668725  0.00323822  0.99513047  1
  Hf  Hf2  1  0.70572507  0.45507925  0.24355174  1
  Hf  Hf3  1  0.78183792  0.03109022  0.75170915  1
  Hf  Hf4  1  0.75533975  0.78733197  0.03313976  1
  Hf  Hf5  1  0.75621285  0.28567243  0.53939178  1
  Hf  Hf6  1  0.99808543  0.50454982  0.98846299  1
  Hf  Hf7  1  0.01708241  0.00919705  0.51080429  1
  Hf  Hf8  1  0.49055516  0.50558873  0.50299119  1
  Hf  Hf9  1  0.46857433  0.25260006  0.72018935  1
  Hf  Hf10  1  0.52458569  0.74058162  0.28673592  1
  Hf  Hf11  1  0.25144674  0.21781596  0.96090518  1
  Hf  Hf12  1  0.25365824  0.71827099  0.46740665  1
  Hf  Hf13  1  0.21003565  0.95979968  0.25155715  1
  Hf  Hf14  1  0.28465091  0.53511296  0.74397828  1
  Hf  Hf15  1  0.03889922  0.75381322  0.78599584  1
  N  N16  1  0.73893649  0.22936180  0.27494908  1
  N  N17  1  0.45591081  0.46539708  0.22874264  1
  N  N18  1  0.72742530  0.25716835  0.76922729  1
  N  N19  1  0.00989015  0.04464486  0.27519423  1
  N  N20  1  0.27124951  0.73379374  0.22295616  1
  N  N21  1  0.22584378  0.45594505  0.46340957  1
  N  N22  1  0.98664187  0.95357696  0.72773657  1
  N  N23  1  0.50984370  0.23689651  0.96673634  1
  N  N24  1  0.54551534  0.53371855  0.77141995  1
  N  N25  1  0.95752561  0.72930149  0.98965997  1
  N  N26  1  0.22413751  0.27418375  0.74132499  1
  N  N27  1  0.53530487  0.77377775  0.54514173  1
  N  N28  1  0.03094901  0.48556677  0.75712682  1
  N  N29  1  0.72658442  0.98702795  0.95366223  1
  N  N30  1  0.26415224  0.77720397  0.73243257  1
  N  N31  1  0.24051981  0.96898906  0.51098342  1
  O  O32  1  0.75779500  0.02995342  0.48085151  1
  O  O33  1  0.27521704  0.01277345  0.05005344  1
  O  O34  1  0.96080994  0.51350354  0.23601093  1
  O  O35  1  0.77108188  0.72436023  0.25978278  1
  O  O36  1  0.46679076  0.22705712  0.44780752  1
  O  O37  1  0.04776785  0.27608600  0.01893520  1
  O  O38  1  0.77160612  0.54236298  0.53533011  1
  O  O39  1  0.49450690  0.76470973  0.03949484  1
