# generated using pymatgen
data_La8Cu3O16
_symmetry_space_group_name_H-M   'P 1'
_cell_length_a   8.42926690
_cell_length_b   7.54050362
_cell_length_c   8.87654669
_cell_angle_alpha   102.22054299
_cell_angle_beta   131.58907980
_cell_angle_gamma   63.36381027
_symmetry_Int_Tables_number   1
_chemical_formula_structural   La8Cu3O16
_chemical_formula_sum   'La8 Cu3 O16'
_cell_volume   374.06832376
_cell_formula_units_Z   1
loop_
 _symmetry_equiv_pos_site_id
 _symmetry_equiv_pos_as_xyz
  1  'x, y, z'
loop_
 _atom_site_type_symbol
 _atom_site_label
 _atom_site_symmetry_multiplicity
 _atom_site_fract_x
 _atom_site_fract_y
 _atom_site_fract_z
 _atom_site_occupancy
  La  La0  1  0.05350743  0.16322066  0.73018325  1
  La  La1  1  0.94895196  0.85260468  0.27630186  1
  La  La2  1  0.05487406  0.64685904  0.72518197  1
  La  La3  1  0.53166559  0.40530866  0.72066689  1
  La  La4  1  0.53604943  0.92290620  0.72219487  1
  La  La5  1  0.95017316  0.33707323  0.27165239  1
  La  La6  1  0.46878245  0.09555282  0.27883120  1
  La  La7  1  0.46352585  0.57828140  0.27778700  1
  Cu  Cu8  1  0.49900608  0.75001622  -0.00100870  1
  Cu  Cu9  1  0.99895469  0.49936134  0.99904143  1
  Cu  Cu10  1  0.00107849  0.99894067  0.00362276  1
  O  O11  1  0.25375392  0.87470541  0.00563738  1
  O  O12  1  0.77858673  0.70520575  0.36776913  1
  O  O13  1  0.24380087  0.37867011  0.99891532  1
  O  O14  1  0.49713072  0.99367030  0.99609669  1
  O  O15  1  0.77569059  0.20138564  0.37576944  1
  O  O16  1  0.27029292  0.44974119  0.36283757  1
  O  O17  1  0.26490851  0.95340479  0.36717422  1
  O  O18  1  0.22066090  0.29843278  0.62660833  1
  O  O19  1  0.75509921  0.12286761  0.00016948  1
  O  O20  1  0.50307389  0.50706581  0.00406228  1
  O  O21  1  0.00344064  0.74847174  0.00282835  1
  O  O22  1  0.00300931  0.24811800  0.00218153  1
  O  O23  1  0.21769500  0.79373994  0.63454479  1
  O  O24  1  0.72411255  0.53934127  0.63307171  1
  O  O25  1  0.71825897  0.04435764  0.63516179  1
  O  O26  1  0.74498811  0.62697010  0.99396208  1
