# generated using pymatgen
data_Ti2N2O
_symmetry_space_group_name_H-M   'P 1'
_cell_length_a   8.21563915
_cell_length_b   8.21920061
_cell_length_c   8.22800980
_cell_angle_alpha   109.59115929
_cell_angle_beta   109.43630226
_cell_angle_gamma   109.31135146
_symmetry_Int_Tables_number   1
_chemical_formula_structural   Ti2N2O
_chemical_formula_sum   'Ti16 N16 O8'
_cell_volume   428.09723433
_cell_formula_units_Z   8
loop_
 _symmetry_equiv_pos_site_id
 _symmetry_equiv_pos_as_xyz
  1  'x, y, z'
loop_
 _atom_site_type_symbol
 _atom_site_label
 _atom_site_symmetry_multiplicity
 _atom_site_fract_x
 _atom_site_fract_y
 _atom_site_fract_z
 _atom_site_occupancy
  Ti  Ti0  1  0.78507087  0.24703067  0.04243278  1
  Ti  Ti1  1  0.99048681  0.98981252  0.00040458  1
  Ti  Ti2  1  0.48642861  0.99187842  0.49869615  1
  Ti  Ti3  1  0.49082237  0.48489251  0.98840049  1
  Ti  Ti4  1  0.54112124  0.29141874  0.24290899  1
  Ti  Ti5  1  0.95358535  0.20354127  0.75126163  1
  Ti  Ti6  1  0.75112243  0.45148220  0.71419931  1
  Ti  Ti7  1  0.75769659  0.97173033  0.20400602  1
  Ti  Ti8  1  0.29193206  0.25633809  0.54957317  1
  Ti  Ti9  1  0.71000738  0.75347076  0.46279831  1
  Ti  Ti10  1  0.24400870  0.03902983  0.78548140  1
  Ti  Ti11  1  0.26686054  0.54965852  0.29712072  1
  Ti  Ti12  1  0.01612069  0.50502931  0.51212054  1
  Ti  Ti13  1  0.04485782  0.79567889  0.24993508  1
  Ti  Ti14  1  0.45655089  0.70579294  0.74568273  1
  Ti  Ti15  1  0.19697179  0.73717034  0.95153238  1
  N  N16  1  0.76403699  0.22480991  0.27458076  1
  N  N17  1  0.45224050  0.49062085  0.22746898  1
  N  N18  1  0.03835978  0.04863919  0.27319798  1
  N  N19  1  0.72652957  0.23667419  0.77389347  1
  N  N20  1  0.95898874  0.94938292  0.72393761  1
  N  N21  1  0.22456716  0.45083127  0.48780044  1
  N  N22  1  0.54035879  0.26628397  0.99036041  1
  N  N23  1  0.27605562  0.76643708  0.22491887  1
  N  N24  1  0.95190225  0.72663097  0.95853167  1
  N  N25  1  0.54962554  0.50718830  0.77587086  1
  N  N26  1  0.51378684  0.77925034  0.55192459  1
  N  N27  1  0.22421016  0.27896649  0.76756980  1
  N  N28  1  0.01135558  0.45947759  0.73384367  1
  N  N29  1  0.72790507  0.96240183  0.95039079  1
  N  N30  1  0.26618683  0.99157746  0.54018489  1
  N  N31  1  0.23363263  0.77411840  0.72735877  1
  O  O32  1  0.73587689  0.00710259  0.45969130  1
  O  O33  1  0.27817350  0.04692337  0.05454464  1
  O  O34  1  0.98851233  0.54089553  0.26291979  1
  O  O35  1  0.77633921  0.72960555  0.23934455  1
  O  O36  1  0.49369045  0.22595621  0.44856545  1
  O  O37  1  0.04819793  0.27685026  0.03967626  1
  O  O38  1  0.77111965  0.54665004  0.50513920  1
  O  O39  1  0.46470584  0.73877035  0.01173098  1
