# generated using pymatgen
data_Ti2N2O
_symmetry_space_group_name_H-M   'P 1'
_cell_length_a   8.23576653
_cell_length_b   8.23181711
_cell_length_c   8.22768951
_cell_angle_alpha   109.55984439
_cell_angle_beta   109.50919699
_cell_angle_gamma   109.47548345
_symmetry_Int_Tables_number   1
_chemical_formula_structural   Ti2N2O
_chemical_formula_sum   'Ti16 N16 O8'
_cell_volume   428.69871366
_cell_formula_units_Z   8
loop_
 _symmetry_equiv_pos_site_id
 _symmetry_equiv_pos_as_xyz
  1  'x, y, z'
loop_
 _atom_site_type_symbol
 _atom_site_label
 _atom_site_symmetry_multiplicity
 _atom_site_fract_x
 _atom_site_fract_y
 _atom_site_fract_z
 _atom_site_occupancy
  Ti  Ti0  1  0.49352819  0.01210943  0.00327782  1
  Ti  Ti1  1  0.94964376  0.23664971  0.20558291  1
  Ti  Ti2  1  0.79329723  0.04413314  0.75019408  1
  Ti  Ti3  1  0.69646425  0.45301705  0.24013672  1
  Ti  Ti4  1  0.75275839  0.78570750  0.05331636  1
  Ti  Ti5  1  0.76254795  0.29802299  0.55055142  1
  Ti  Ti6  1  0.99878719  0.48520176  0.98925404  1
  Ti  Ti7  1  0.50223820  0.51112781  0.50454024  1
  Ti  Ti8  1  0.53297201  0.73729512  0.29218160  1
  Ti  Ti9  1  0.01304045  0.00177357  0.50427477  1
  Ti  Ti10  1  0.45768581  0.25660673  0.71228735  1
  Ti  Ti11  1  0.25366325  0.71835413  0.45508919  1
  Ti  Ti12  1  0.24124656  0.20496623  0.95089630  1
  Ti  Ti13  1  0.20814765  0.95477453  0.24826738  1
  Ti  Ti14  1  0.29785073  0.54597509  0.75202213  1
  Ti  Ti15  1  0.05689799  0.76039356  0.79231293  1
  N  N16  1  0.00722580  0.05014707  0.27232049  1
  N  N17  1  0.73673358  0.22676484  0.27626775  1
  N  N18  1  0.45095732  0.46039675  0.22872764  1
  N  N19  1  0.77134599  0.72053636  0.25953584  1
  N  N20  1  0.72592019  0.26535815  0.77269169  1
  N  N21  1  0.27654405  0.73547546  0.22376461  1
  N  N22  1  0.51051607  0.23554812  0.95875784  1
  N  N23  1  0.54201517  0.77417286  0.55133072  1
  N  N24  1  0.22201996  0.27630712  0.73194790  1
  N  N25  1  0.27576275  0.00600551  0.05097368  1
  N  N26  1  0.54942338  0.54286580  0.77410565  1
  N  N27  1  0.23471508  0.95935047  0.50930712  1
  N  N28  1  0.04823706  0.27437427  0.01048659  1
  N  N29  1  0.26541227  0.77386001  0.72572109  1
  N  N30  1  0.03757394  0.48892830  0.76335822  1
  N  N31  1  0.98838937  0.94526987  0.72077052  1
  O  O32  1  0.96394564  0.51156299  0.23945504  1
  O  O33  1  0.94958498  0.72490786  0.99625399  1
  O  O34  1  0.76603159  0.04192588  0.49298547  1
  O  O35  1  0.72340781  0.99229344  0.94851245  1
  O  O36  1  0.45545808  0.22530432  0.44939887  1
  O  O37  1  0.49384513  0.76658905  0.03905204  1
  O  O38  1  0.76840181  0.54502788  0.54302723  1
  O  O39  1  0.22576239  0.45092025  0.45706133  1
