# generated using pymatgen
data_Zr2N2O
_symmetry_space_group_name_H-M   'P 1'
_cell_length_a   8.87817094
_cell_length_b   8.86681005
_cell_length_c   8.88235098
_cell_angle_alpha   109.63386039
_cell_angle_beta   109.41723738
_cell_angle_gamma   109.36006317
_symmetry_Int_Tables_number   1
_chemical_formula_structural   Zr2N2O
_chemical_formula_sum   'Zr16 N16 O8'
_cell_volume   538.28004500
_cell_formula_units_Z   8
loop_
 _symmetry_equiv_pos_site_id
 _symmetry_equiv_pos_as_xyz
  1  'x, y, z'
loop_
 _atom_site_type_symbol
 _atom_site_label
 _atom_site_symmetry_multiplicity
 _atom_site_fract_x
 _atom_site_fract_y
 _atom_site_fract_z
 _atom_site_occupancy
  Zr  Zr0  1  0.95809800  0.24411420  0.20755007  1
  Zr  Zr1  1  0.50712503  0.00715678  0.99697648  1
  Zr  Zr2  1  0.79047117  0.03440560  0.75846858  1
  Zr  Zr3  1  0.70377746  0.46205511  0.23998609  1
  Zr  Zr4  1  0.75061300  0.77816918  0.03133210  1
  Zr  Zr5  1  0.74787599  0.28422920  0.52887530  1
  Zr  Zr6  1  0.49959132  0.49892450  0.50162729  1
  Zr  Zr7  1  0.45851349  0.25215491  0.71325658  1
  Zr  Zr8  1  0.53258166  0.74198871  0.29011466  1
  Zr  Zr9  1  0.00857313  0.50674832  0.99683658  1
  Zr  Zr10  1  0.00475130  0.99552666  0.50716959  1
  Zr  Zr11  1  0.25713721  0.72352851  0.46946330  1
  Zr  Zr12  1  0.24620830  0.21733057  0.95913454  1
  Zr  Zr13  1  0.21957182  0.96176360  0.25591915  1
  Zr  Zr14  1  0.28577748  0.53916865  0.75247901  1
  Zr  Zr15  1  0.03940519  0.75158632  0.78840436  1
  N  N16  1  0.73989279  0.22922337  0.27496786  1
  N  N17  1  0.46832633  0.22790513  0.45218324  1
  N  N18  1  0.77304979  0.72871430  0.25938326  1
  N  N19  1  0.04370865  0.27427909  0.01370757  1
  N  N20  1  0.45673098  0.46545720  0.23046096  1
  N  N21  1  0.27243184  0.73696322  0.22297337  1
  N  N22  1  0.51417051  0.23794593  0.96468972  1
  N  N23  1  0.98539497  0.95020524  0.72365247  1
  N  N24  1  0.54145117  0.53575877  0.77144016  1
  N  N25  1  0.95805873  0.73202312  0.99212934  1
  N  N26  1  0.53238456  0.77271327  0.54528019  1
  N  N27  1  0.22403284  0.27182944  0.73689154  1
  N  N28  1  0.02888418  0.48532835  0.75876861  1
  N  N29  1  0.72701149  0.98722895  0.95715712  1
  N  N30  1  0.23380265  0.96424912  0.50669740  1
  N  N31  1  0.26311987  0.77201813  0.72922759  1
  O  O32  1  0.76151403  0.03671527  0.49214437  1
  O  O33  1  0.27262471  0.01028251  0.04347282  1
  O  O34  1  0.96956890  0.51113736  0.24286555  1
  O  O35  1  0.72651238  0.25842285  0.77141711  1
  O  O36  1  0.01512192  0.05376726  0.27750183  1
  O  O37  1  0.48466235  0.76075770  0.03499692  1
  O  O38  1  0.77163484  0.54716949  0.53726230  1
  O  O39  1  0.22583895  0.45105512  0.46313599  1
