# generated using pymatgen
data_Zr2N2O
_symmetry_space_group_name_H-M   'P 1'
_cell_length_a   8.88670853
_cell_length_b   8.88360740
_cell_length_c   8.85381926
_cell_angle_alpha   109.26607492
_cell_angle_beta   109.42624828
_cell_angle_gamma   109.68513464
_symmetry_Int_Tables_number   1
_chemical_formula_structural   Zr2N2O
_chemical_formula_sum   'Zr16 N16 O8'
_cell_volume   538.30511925
_cell_formula_units_Z   8
loop_
 _symmetry_equiv_pos_site_id
 _symmetry_equiv_pos_as_xyz
  1  'x, y, z'
loop_
 _atom_site_type_symbol
 _atom_site_label
 _atom_site_symmetry_multiplicity
 _atom_site_fract_x
 _atom_site_fract_y
 _atom_site_fract_z
 _atom_site_occupancy
  Zr  Zr0  1  0.49887630  0.99814402  0.98723307  1
  Zr  Zr1  1  0.75876662  0.29483870  0.54698561  1
  Zr  Zr2  1  0.72065684  0.47135962  0.24986000  1
  Zr  Zr3  1  0.20823838  0.95859247  0.24365517  1
  Zr  Zr4  1  0.24570999  0.21114508  0.95209565  1
  Zr  Zr5  1  0.02785998  0.74237094  0.77459810  1
  Zr  Zr6  1  0.53223949  0.74730886  0.28981914  1
  Zr  Zr7  1  0.96388607  0.25045233  0.21665291  1
  Zr  Zr8  1  0.50311675  0.50783771  0.51226552  1
  Zr  Zr9  1  0.99968838  0.99937026  0.49889710  1
  Zr  Zr10  1  0.47001716  0.25791044  0.72460955  1
  Zr  Zr11  1  0.99911982  0.50820721  0.99946669  1
  Zr  Zr12  1  0.75819211  0.78950116  0.04005899  1
  Zr  Zr13  1  0.28432341  0.53371816  0.74482319  1
  Zr  Zr14  1  0.78165000  0.03148496  0.75316706  1
  Zr  Zr15  1  0.24818789  0.70587970  0.46206738  1
  N  N16  1  0.72683713  0.99312808  0.95801268  1
  N  N17  1  0.50999209  0.23790661  0.97037563  1
  N  N18  1  0.01546266  0.04713261  0.27616293  1
  N  N19  1  0.76779775  0.72814712  0.26293670  1
  N  N20  1  0.72681799  0.25684923  0.76876441  1
  N  N21  1  0.76763574  0.53777973  0.52739230  1
  N  N22  1  0.27472389  0.74124610  0.22701898  1
  N  N23  1  0.95661266  0.72830872  0.98777001  1
  N  N24  1  0.53884368  0.77041429  0.54253474  1
  N  N25  1  0.98914539  0.95851784  0.73050223  1
  N  N26  1  0.22653230  0.27066572  0.73829101  1
  N  N27  1  0.54753906  0.53300821  0.77321728  1
  N  N28  1  0.22925939  0.45509241  0.46656050  1
  N  N29  1  0.96377710  0.50645652  0.23733504  1
  N  N30  1  0.03333917  0.48492989  0.75875199  1
  N  N31  1  0.26511865  0.77971743  0.72993695  1
  O  O32  1  0.27840525  0.01483088  0.05308667  1
  O  O33  1  0.76084488  0.03442006  0.48218456  1
  O  O34  1  0.73749931  0.21914015  0.27535567  1
  O  O35  1  0.05134936  0.27489022  0.01782487  1
  O  O36  1  0.44436385  0.46380656  0.22281903  1
  O  O37  1  0.23710056  0.96654459  0.50918672  1
  O  O38  1  0.46104897  0.22442843  0.45210552  1
  O  O39  1  0.48942299  0.76451799  0.03561750  1
