# generated using pymatgen
data_Zr2N2O
_symmetry_space_group_name_H-M   'P 1'
_cell_length_a   8.88208304
_cell_length_b   8.86510835
_cell_length_c   8.87993581
_cell_angle_alpha   109.51957562
_cell_angle_beta   109.42971406
_cell_angle_gamma   109.43299717
_symmetry_Int_Tables_number   1
_chemical_formula_structural   Zr2N2O
_chemical_formula_sum   'Zr16 N16 O8'
_cell_volume   538.46143480
_cell_formula_units_Z   8
loop_
 _symmetry_equiv_pos_site_id
 _symmetry_equiv_pos_as_xyz
  1  'x, y, z'
loop_
 _atom_site_type_symbol
 _atom_site_label
 _atom_site_symmetry_multiplicity
 _atom_site_fract_x
 _atom_site_fract_y
 _atom_site_fract_z
 _atom_site_occupancy
  Zr  Zr0  1  0.49892645  0.99646308  0.99860998  1
  Zr  Zr1  1  0.95582269  0.24754410  0.21681599  1
  Zr  Zr2  1  0.78009343  0.03184671  0.75351597  1
  Zr  Zr3  1  0.70839567  0.46842719  0.25231222  1
  Zr  Zr4  1  0.75685014  0.28785584  0.54002932  1
  Zr  Zr5  1  0.75014069  0.78007566  0.03163002  1
  Zr  Zr6  1  0.46445933  0.25041235  0.71194121  1
  Zr  Zr7  1  0.01042484  0.99893845  0.51012572  1
  Zr  Zr8  1  0.49074910  0.50586716  0.50208665  1
  Zr  Zr9  1  0.99797475  0.50537757  0.98894768  1
  Zr  Zr10  1  0.53221237  0.74203914  0.28646121  1
  Zr  Zr11  1  0.25458914  0.71824136  0.46599956  1
  Zr  Zr12  1  0.24629528  0.21420779  0.96340111  1
  Zr  Zr13  1  0.21339330  0.95405078  0.24309046  1
  Zr  Zr14  1  0.28211166  0.53079605  0.74153983  1
  Zr  Zr15  1  0.04644170  0.76175505  0.79296351  1
  N  N16  1  0.74036048  0.23044487  0.27453440  1
  N  N17  1  0.27828797  0.01566530  0.04933745  1
  N  N18  1  0.77379460  0.72682255  0.26048106  1
  N  N19  1  0.45592901  0.46396389  0.22756029  1
  N  N20  1  0.72630048  0.25869450  0.77340695  1
  N  N21  1  0.22550884  0.45055682  0.46180907  1
  N  N22  1  0.27234157  0.73562977  0.22251852  1
  N  N23  1  0.98322378  0.95203737  0.72428491  1
  N  N24  1  0.95760209  0.72996478  0.99328594  1
  N  N25  1  0.54509003  0.53497605  0.77159668  1
  N  N26  1  0.53438465  0.77253866  0.54320418  1
  N  N27  1  0.22778385  0.27192197  0.74245340  1
  N  N28  1  0.02976741  0.48610648  0.75752410  1
  N  N29  1  0.73011971  0.98886761  0.95778207  1
  N  N30  1  0.23850988  0.96887971  0.50861760  1
  N  N31  1  0.26596396  0.77607538  0.73017604  1
  O  O32  1  0.76043441  0.03518463  0.48539199  1
  O  O33  1  0.96475763  0.50695075  0.23514954  1
  O  O34  1  0.46970534  0.23074650  0.45696807  1
  O  O35  1  0.04754924  0.27511682  0.01543671  1
  O  O36  1  0.48898350  0.76467534  0.03582150  1
  O  O37  1  0.01183222  0.04879680  0.27478184  1
  O  O38  1  0.77020993  0.54219907  0.53189916  1
  O  O39  1  0.51267988  0.23928810  0.96650806  1
