# generated using pymatgen
data_Sn2N2O
_symmetry_space_group_name_H-M   'P 1'
_cell_length_a   8.87375853
_cell_length_b   8.84696655
_cell_length_c   8.86224408
_cell_angle_alpha   109.38207058
_cell_angle_beta   109.52913384
_cell_angle_gamma   109.59468055
_symmetry_Int_Tables_number   1
_chemical_formula_structural   Sn2N2O
_chemical_formula_sum   'Sn16 N16 O8'
_cell_volume   534.96744135
_cell_formula_units_Z   8
loop_
 _symmetry_equiv_pos_site_id
 _symmetry_equiv_pos_as_xyz
  1  'x, y, z'
loop_
 _atom_site_type_symbol
 _atom_site_label
 _atom_site_symmetry_multiplicity
 _atom_site_fract_x
 _atom_site_fract_y
 _atom_site_fract_z
 _atom_site_occupancy
  Sn  Sn0  1  0.49945188  0.99935799  0.98973797  1
  Sn  Sn1  1  0.74417558  0.28167061  0.53316150  1
  Sn  Sn2  1  0.71495823  0.46997476  0.23678192  1
  Sn  Sn3  1  0.22753226  0.96204338  0.25683135  1
  Sn  Sn4  1  0.24513059  0.21644581  0.95468586  1
  Sn  Sn5  1  0.00702719  0.50407778  0.00223110  1
  Sn  Sn6  1  0.97382382  0.25647066  0.21220969  1
  Sn  Sn7  1  0.49775255  0.50225242  0.50706143  1
  Sn  Sn8  1  0.00556143  0.99239972  0.50346685  1
  Sn  Sn9  1  0.53527538  0.75429067  0.29045143  1
  Sn  Sn10  1  0.45905572  0.25035452  0.71533789  1
  Sn  Sn11  1  0.03507568  0.74745119  0.78299577  1
  Sn  Sn12  1  0.75338150  0.78285141  0.03241914  1
  Sn  Sn13  1  0.79095444  0.02468571  0.76142014  1
  Sn  Sn14  1  0.27099201  0.52461302  0.73475691  1
  Sn  Sn15  1  0.25068033  0.71487653  0.46630696  1
  N  N16  1  0.73552177  0.99871543  0.97330811  1
  N  N17  1  0.50258020  0.23646518  0.96491116  1
  N  N18  1  0.47034873  0.23327340  0.46104484  1
  N  N19  1  0.76199878  0.73510443  0.26321128  1
  N  N20  1  0.04562015  0.27202024  0.00035921  1
  N  N21  1  0.23390879  0.95913329  0.50405446  1
  N  N22  1  0.96743597  0.74235523  0.00229666  1
  N  N23  1  0.22598304  0.45335265  0.45473836  1
  N  N24  1  0.54936249  0.77414455  0.54673086  1
  N  N25  1  0.99665930  0.94945482  0.73020416  1
  N  N26  1  0.54372801  0.54260500  0.77960134  1
  N  N27  1  0.95397347  0.50003108  0.22782101  1
  N  N28  1  0.21901706  0.26950905  0.72612019  1
  N  N29  1  0.27877506  0.73090680  0.22862293  1
  N  N30  1  0.01763084  0.48612144  0.75260136  1
  N  N31  1  0.26708945  0.77008981  0.73237223  1
  O  O32  1  0.76830591  0.04581584  0.49612243  1
  O  O33  1  0.28602977  0.01409401  0.05588732  1
  O  O34  1  0.72572580  0.22327022  0.27591618  1
  O  O35  1  0.45257360  0.45812041  0.22727342  1
  O  O36  1  0.76729758  0.54373160  0.51775508  1
  O  O37  1  0.71866477  0.24910980  0.77029677  1
  O  O38  1  0.48825527  0.77503683  0.04552600  1
  O  O39  1  0.01268462  0.05372171  0.28336873  1
