# generated using pymatgen
data_AgGeO3
_symmetry_space_group_name_H-M   'P 1'
_cell_length_a   10.40786126
_cell_length_b   8.85007555
_cell_length_c   3.17289292
_cell_angle_alpha   89.98576325
_cell_angle_beta   89.99136359
_cell_angle_gamma   90.09551563
_symmetry_Int_Tables_number   1
_chemical_formula_structural   AgGeO3
_chemical_formula_sum   'Ag4 Ge4 O12'
_cell_volume   292.25588601
_cell_formula_units_Z   4
loop_
 _symmetry_equiv_pos_site_id
 _symmetry_equiv_pos_as_xyz
  1  'x, y, z'
loop_
 _atom_site_type_symbol
 _atom_site_label
 _atom_site_symmetry_multiplicity
 _atom_site_fract_x
 _atom_site_fract_y
 _atom_site_fract_z
 _atom_site_occupancy
  Ag  Ag0  1  0.99583552  0.99937157  0.02695116  1
  Ag  Ag1  1  0.99540521  0.50170849  0.02565076  1
  Ag  Ag2  1  0.49532562  0.99833360  0.04753193  1
  Ag  Ag3  1  0.49589842  0.50056249  0.03085946  1
  Ge  Ge4  1  0.20828788  0.75345671  0.53460099  1
  Ge  Ge5  1  0.28477192  0.25139619  0.54139132  1
  Ge  Ge6  1  0.70820295  0.74742301  0.53203837  1
  Ge  Ge7  1  0.78475886  0.24775460  0.52561353  1
  O  O8  1  0.10707111  0.59160358  0.52757592  1
  O  O9  1  0.11563410  0.92173311  0.52897347  1
  O  O10  1  0.19521243  0.25043916  0.04132049  1
  O  O11  1  0.29813984  0.75035069  0.03429695  1
  O  O12  1  0.37720419  0.42103489  0.53323205  1
  O  O13  1  0.38319703  0.08766515  0.54791079  1
  O  O14  1  0.60696986  0.90857733  0.54493792  1
  O  O15  1  0.61548762  0.57809318  0.52949009  1
  O  O16  1  0.69528447  0.24940167  0.02565009  1
  O  O17  1  0.79815486  0.74991369  0.03213560  1
  O  O18  1  0.87698887  0.07903976  0.52560284  1
  O  O19  1  0.88320526  0.41214314  0.52474227  1
