# generated using pymatgen
data_Hf2N2O
_symmetry_space_group_name_H-M   'P 1'
_cell_length_a   8.75524902
_cell_length_b   8.75062944
_cell_length_c   8.70498125
_cell_angle_alpha   109.34003017
_cell_angle_beta   109.55887665
_cell_angle_gamma   109.62835172
_symmetry_Int_Tables_number   1
_chemical_formula_structural   Hf2N2O
_chemical_formula_sum   'Hf16 N16 O8'
_cell_volume   512.67383283
_cell_formula_units_Z   8
loop_
 _symmetry_equiv_pos_site_id
 _symmetry_equiv_pos_as_xyz
  1  'x, y, z'
loop_
 _atom_site_type_symbol
 _atom_site_label
 _atom_site_symmetry_multiplicity
 _atom_site_fract_x
 _atom_site_fract_y
 _atom_site_fract_z
 _atom_site_occupancy
  Hf  Hf0  1  0.48908775  0.98985146  0.98874937  1
  Hf  Hf1  1  0.75638692  0.29289094  0.54376667  1
  Hf  Hf2  1  0.72078928  0.47150265  0.24917141  1
  Hf  Hf3  1  0.21243504  0.95405162  0.24956142  1
  Hf  Hf4  1  0.25025241  0.21493183  0.95600364  1
  Hf  Hf5  1  0.97206878  0.26580625  0.22367115  1
  Hf  Hf6  1  0.99661451  0.50940358  0.99643666  1
  Hf  Hf7  1  0.50344883  0.50927037  0.51281068  1
  Hf  Hf8  1  0.01022269  0.99834702  0.50835910  1
  Hf  Hf9  1  0.02616359  0.74071319  0.77373003  1
  Hf  Hf10  1  0.46602106  0.25017023  0.72198872  1
  Hf  Hf11  1  0.53398184  0.74870979  0.28271165  1
  Hf  Hf12  1  0.74422242  0.77826236  0.03629709  1
  Hf  Hf13  1  0.78087983  0.03133525  0.74525258  1
  Hf  Hf14  1  0.28637524  0.53727916  0.75138422  1
  Hf  Hf15  1  0.25140988  0.71469122  0.46375676  1
  N  N16  1  0.51071154  0.23890598  0.97208451  1
  N  N17  1  0.76650960  0.53670236  0.52560254  1
  N  N18  1  0.72585222  0.25559857  0.76763691  1
  N  N19  1  0.23618064  0.96792404  0.50770399  1
  N  N20  1  0.77097867  0.72740197  0.26236284  1
  N  N21  1  0.49243524  0.76806012  0.03587328  1
  N  N22  1  0.95824653  0.73236722  0.99086164  1
  N  N23  1  0.96326754  0.50612722  0.23600246  1
  N  N24  1  0.27369659  0.73936255  0.22523544  1
  N  N25  1  0.22822173  0.45014790  0.46260788  1
  N  N26  1  0.54901271  0.53323677  0.77304009  1
  N  N27  1  0.54050031  0.77368082  0.54873065  1
  N  N28  1  0.99021154  0.95853644  0.73099607  1
  N  N29  1  0.22501555  0.27325852  0.74086952  1
  N  N30  1  0.03155804  0.48469306  0.75816195  1
  N  N31  1  0.26201766  0.77750829  0.72815131  1
  O  O32  1  0.73057235  0.99677256  0.95853442  1
  O  O33  1  0.28194302  0.01454260  0.05363337  1
  O  O34  1  0.76016999  0.03431255  0.48520725  1
  O  O35  1  0.74389237  0.21831238  0.27628541  1
  O  O36  1  0.46081870  0.22470312  0.44606703  1
  O  O37  1  0.04877047  0.26991938  0.01887507  1
  O  O38  1  0.44409033  0.46619361  0.22212909  1
  O  O39  1  0.00496561  0.04451605  0.26969414  1
