# generated using pymatgen
data_Li2Fe3NiO8
_symmetry_space_group_name_H-M   'P 1'
_cell_length_a   5.84498337
_cell_length_b   5.84498337
_cell_length_c   9.60125600
_cell_angle_alpha   90.00000000
_cell_angle_beta   90.00000000
_cell_angle_gamma   118.76750844
_symmetry_Int_Tables_number   1
_chemical_formula_structural   Li2Fe3NiO8
_chemical_formula_sum   'Li4 Fe6 Ni2 O16'
_cell_volume   287.53190102
_cell_formula_units_Z   2
loop_
 _symmetry_equiv_pos_site_id
 _symmetry_equiv_pos_as_xyz
  1  'x, y, z'
loop_
 _atom_site_type_symbol
 _atom_site_label
 _atom_site_symmetry_multiplicity
 _atom_site_fract_x
 _atom_site_fract_y
 _atom_site_fract_z
 _atom_site_occupancy
  Li  Li0  1  0.17062700  0.82937300  0.11131600  1
  Li  Li1  1  0.50436900  0.49563100  0.00075300  1
  Li  Li2  1  0.49563100  0.50436900  0.50075300  1
  Li  Li3  1  0.82937300  0.17062700  0.61131600  1
  Fe  Fe4  1  0.83929800  0.66916300  0.78414900  1
  Fe  Fe5  1  0.33083700  0.16070200  0.78414900  1
  Fe  Fe6  1  0.33095100  0.66904900  0.78765800  1
  Fe  Fe7  1  0.66904900  0.33095100  0.28765800  1
  Fe  Fe8  1  0.66916300  0.83929800  0.28414900  1
  Fe  Fe9  1  0.16070200  0.33083700  0.28414900  1
  Ni  Ni10  1  0.16334300  0.83665700  0.51074900  1
  Ni  Ni11  1  0.83665700  0.16334300  0.01074900  1
  O  O12  1  0.81683900  0.67580500  0.39731700  1
  O  O13  1  0.01672700  0.98327300  0.66959900  1
  O  O14  1  0.18153500  0.81846500  0.89821000  1
  O  O15  1  0.48658200  0.51341800  0.68578600  1
  O  O16  1  0.51341800  0.48658200  0.18578600  1
  O  O17  1  0.32419500  0.18316100  0.39731700  1
  O  O18  1  0.00675800  0.53931700  0.66389800  1
  O  O19  1  0.46068300  0.99324200  0.66389800  1
  O  O20  1  0.66374000  0.33626000  0.88945100  1
  O  O21  1  0.33626000  0.66374000  0.38945100  1
  O  O22  1  0.53931700  0.00675800  0.16389800  1
  O  O23  1  0.99324200  0.46068300  0.16389800  1
  O  O24  1  0.81846500  0.18153500  0.39821000  1
  O  O25  1  0.67580500  0.81683900  0.89731700  1
  O  O26  1  0.98327300  0.01672700  0.16959900  1
  O  O27  1  0.18316100  0.32419500  0.89731700  1
