# generated using pymatgen
data_V5Co(PO4)6
_symmetry_space_group_name_H-M   'P 1'
_cell_length_a   8.53241144
_cell_length_b   8.65443994
_cell_length_c   8.65444031
_cell_angle_alpha   59.99999922
_cell_angle_beta   59.52576153
_cell_angle_gamma   59.52576237
_symmetry_Int_Tables_number   1
_chemical_formula_structural   V5Co(PO4)6
_chemical_formula_sum   'V5 Co1 P6 O24'
_cell_volume   448.62574878
_cell_formula_units_Z   1
loop_
 _symmetry_equiv_pos_site_id
 _symmetry_equiv_pos_as_xyz
  1  'x, y, z'
loop_
 _atom_site_type_symbol
 _atom_site_label
 _atom_site_symmetry_multiplicity
 _atom_site_fract_x
 _atom_site_fract_y
 _atom_site_fract_z
 _atom_site_occupancy
  V  V0  1  0.99238500  0.00253800  0.00253800  1
  V  V1  1  0.06520700  0.64493100  0.64493100  1
  V  V2  1  0.49866700  0.50044400  0.50044400  1
  V  V3  1  0.42675100  0.85775000  0.85775000  1
  V  V4  1  0.93445100  0.35518300  0.35518300  1
  Co  Co5  1  0.56260400  0.14579900  0.14579900  1
  P  P6  1  0.25008800  0.24962600  0.54481100  1
  P  P7  1  0.25008800  0.95547400  0.24962600  1
  P  P8  1  0.25008800  0.54481100  0.95547400  1
  P  P9  1  0.75247900  0.45479900  0.04354400  1
  P  P10  1  0.75247900  0.04354400  0.74917800  1
  P  P11  1  0.75247900  0.74917800  0.45479900  1
  O  O12  1  0.06678600  0.11595700  0.32014500  1
  O  O13  1  0.06678600  0.49711200  0.11595700  1
  O  O14  1  0.06678600  0.32014500  0.49711200  1
  O  O15  1  0.21371800  0.09505000  0.74597600  1
  O  O16  1  0.43542700  0.18429300  0.39528800  1
  O  O17  1  0.26215300  0.41344200  0.56738100  1
  O  O18  1  0.21371800  0.94525600  0.09505000  1
  O  O19  1  0.26215300  0.75702500  0.41344200  1
  O  O20  1  0.56955300  0.61111100  0.00633600  1
  O  O21  1  0.26215300  0.56738100  0.75702500  1
  O  O22  1  0.78832000  0.25781100  0.05114100  1
  O  O23  1  0.56955300  0.00633600  0.81300100  1
  O  O24  1  0.43542700  0.98499200  0.18429300  1
  O  O25  1  0.21371800  0.74597600  0.94525600  1
  O  O26  1  0.73441000  0.43803700  0.24196000  1
  O  O27  1  0.43542700  0.39528800  0.98499200  1
  O  O28  1  0.73441000  0.24196000  0.58559300  1
  O  O29  1  0.78832000  0.05114100  0.90272700  1
  O  O30  1  0.73441000  0.58559300  0.43803700  1
  O  O31  1  0.56955300  0.81300100  0.61111100  1
  O  O32  1  0.78832000  0.90272700  0.25781100  1
  O  O33  1  0.93371100  0.67275800  0.50696100  1
  O  O34  1  0.93371100  0.50696100  0.88657200  1
  O  O35  1  0.93371100  0.88657200  0.67275800  1
