# generated using pymatgen
data_Mn6O5F7
_symmetry_space_group_name_H-M   'P 1'
_cell_length_a   4.70438900
_cell_length_b   5.75275587
_cell_length_c   15.62619768
_cell_angle_alpha   89.97167091
_cell_angle_beta   89.45680717
_cell_angle_gamma   88.45333813
_symmetry_Int_Tables_number   1
_chemical_formula_structural   Mn6O5F7
_chemical_formula_sum   'Mn12 O10 F14'
_cell_volume   422.72185463
_cell_formula_units_Z   2
loop_
 _symmetry_equiv_pos_site_id
 _symmetry_equiv_pos_as_xyz
  1  'x, y, z'
loop_
 _atom_site_type_symbol
 _atom_site_label
 _atom_site_symmetry_multiplicity
 _atom_site_fract_x
 _atom_site_fract_y
 _atom_site_fract_z
 _atom_site_occupancy
  Mn  Mn0  1  0.94786400  0.16005000  0.58576300  1
  Mn  Mn1  1  0.00917800  0.84395100  0.75245200  1
  Mn  Mn2  1  0.98642600  0.17476000  0.92203200  1
  Mn  Mn3  1  0.00303700  0.15763700  0.25829000  1
  Mn  Mn4  1  0.97264700  0.85754200  0.42125100  1
  Mn  Mn5  1  0.96362400  0.86130200  0.08860200  1
  Mn  Mn6  1  0.49936600  0.33355100  0.41192700  1
  Mn  Mn7  1  0.49475700  0.33573000  0.07517100  1
  Mn  Mn8  1  0.51845600  0.34695500  0.75145400  1
  Mn  Mn9  1  0.48068400  0.62349800  0.90986500  1
  Mn  Mn10  1  0.52318100  0.65222000  0.57520200  1
  Mn  Mn11  1  0.50721900  0.65627300  0.24808900  1
  O  O12  1  0.77959300  0.11687000  0.69707700  1
  O  O13  1  0.78101700  0.11133800  0.36386100  1
  O  O14  1  0.77748200  0.12304400  0.02949000  1
  O  O15  1  0.76530800  0.88422800  0.52601700  1
  O  O16  1  0.78408600  0.89558900  0.19989000  1
  O  O17  1  0.72303700  0.38960000  0.85843000  1
  O  O18  1  0.70860400  0.38988800  0.52076200  1
  O  O19  1  0.28336600  0.38049300  0.97031800  1
  O  O20  1  0.28341700  0.60491800  0.80516000  1
  O  O21  1  0.29264300  0.37222300  0.30454800  1
  F  F22  1  0.74822300  0.87916300  0.86574300  1
  F  F23  1  0.76000200  0.61501000  0.68894100  1
  F  F24  1  0.74671400  0.60549300  0.35699500  1
  F  F25  1  0.73906100  0.39465700  0.17970800  1
  F  F26  1  0.72096300  0.62706900  0.01631800  1
  F  F27  1  0.28392000  0.39386500  0.64201500  1
  F  F28  1  0.24814800  0.61715000  0.46640600  1
  F  F29  1  0.26103300  0.61364600  0.13198500  1
  F  F30  1  0.22563500  0.10750000  0.81330400  1
  F  F31  1  0.21912600  0.13213500  0.48407700  1
  F  F32  1  0.25395400  0.88348700  0.63513100  1
  F  F33  1  0.22468400  0.86788400  0.97391700  1
  F  F34  1  0.24093700  0.11720500  0.14902100  1
  F  F35  1  0.24260200  0.87407600  0.32078700  1
