# generated using pymatgen
data_K2Mn3P4(HO3)4
_symmetry_space_group_name_H-M   'P 1'
_cell_length_a   5.50696804
_cell_length_b   24.19464249
_cell_length_c   5.50768808
_cell_angle_alpha   90.00107671
_cell_angle_beta   120.00877648
_cell_angle_gamma   83.46401825
_symmetry_Int_Tables_number   1
_chemical_formula_structural   K2Mn3P4(HO3)4
_chemical_formula_sum   'K4 Mn6 P8 H8 O24'
_cell_volume   629.95447624
_cell_formula_units_Z   2
loop_
 _symmetry_equiv_pos_site_id
 _symmetry_equiv_pos_as_xyz
  1  'x, y, z'
loop_
 _atom_site_type_symbol
 _atom_site_label
 _atom_site_symmetry_multiplicity
 _atom_site_fract_x
 _atom_site_fract_y
 _atom_site_fract_z
 _atom_site_occupancy
  K  K0  1  0.18657100  0.21954900  0.59329800  1
  K  K1  1  0.18663500  0.71948600  0.09332900  1
  K  K2  1  0.81337000  0.28056400  0.90668500  1
  K  K3  1  0.81342800  0.78048700  0.40668700  1
  Mn  Mn4  1  0.91558700  0.62653300  0.45780500  1
  Mn  Mn5  1  0.08453400  0.37349500  0.54223300  1
  Mn  Mn6  1  0.08417900  0.87332500  0.04205500  1
  Mn  Mn7  1  0.99994000  0.99964100  0.99993400  1
  Mn  Mn8  1  0.00000700  0.49997600  0.50012200  1
  Mn  Mn9  1  0.91539800  0.12687500  0.95774500  1
  P  P10  1  0.30390800  0.04410400  0.65196300  1
  P  P11  1  0.30397500  0.54403900  0.15201700  1
  P  P12  1  0.69605500  0.45597100  0.84802500  1
  P  P13  1  0.69606400  0.95582500  0.34801000  1
  P  P14  1  0.55859300  0.16197100  0.27933200  1
  P  P15  1  0.55872900  0.66179300  0.77938500  1
  P  P16  1  0.44131700  0.33819600  0.22063200  1
  P  P17  1  0.44129700  0.83814200  0.72062000  1
  H  H18  1  0.65699000  0.01457200  0.32849200  1
  H  H19  1  0.65688400  0.51471500  0.82843200  1
  H  H20  1  0.34316100  0.48528300  0.17157400  1
  H  H21  1  0.34313200  0.98534200  0.67156300  1
  H  H22  1  0.59768300  0.10326000  0.29886800  1
  H  H23  1  0.59783100  0.60305800  0.79894000  1
  H  H24  1  0.40221600  0.39693700  0.20107500  1
  H  H25  1  0.40223800  0.89691300  0.70108700  1
  O  O26  1  0.13596200  0.06133900  0.80273200  1
  O  O27  1  0.13603500  0.56131500  0.30265600  1
  O  O28  1  0.13592900  0.06133600  0.33320300  1
  O  O29  1  0.13601200  0.56131200  0.83335500  1
  O  O30  1  0.60555900  0.06133800  0.80278600  1
  O  O31  1  0.60542300  0.56131200  0.30271200  1
  O  O32  1  0.39463300  0.43868900  0.69729900  1
  O  O33  1  0.39479700  0.93852000  0.19738900  1
  O  O34  1  0.86400700  0.43868800  0.16661800  1
  O  O35  1  0.86408700  0.93852000  0.66660700  1
  O  O36  1  0.86396700  0.43868500  0.69737100  1
  O  O37  1  0.86406000  0.93851800  0.19746000  1
  O  O38  1  0.70034800  0.18103000  0.58186800  1
  O  O39  1  0.70052800  0.68085600  0.08201900  1
  O  O40  1  0.70030500  0.18102800  0.11853200  1
  O  O41  1  0.70048500  0.68085300  0.61855100  1
  O  O42  1  0.23691700  0.18103900  0.11850000  1
  O  O43  1  0.23694300  0.68085900  0.61851200  1
  O  O44  1  0.76307200  0.31915600  0.38149500  1
  O  O45  1  0.76310800  0.81906200  0.88151200  1
  O  O46  1  0.29950300  0.31917200  0.38145500  1
  O  O47  1  0.29958700  0.81908000  0.88150900  1
  O  O48  1  0.29945900  0.31916700  0.91796000  1
  O  O49  1  0.29954600  0.81907600  0.41798700  1
