# generated using pymatgen
data_Fe9Cu3O16
_symmetry_space_group_name_H-M   'P 1'
_cell_length_a   5.85702378
_cell_length_b   5.87923874
_cell_length_c   8.33928632
_cell_angle_alpha   90.43885690
_cell_angle_beta   90.00322100
_cell_angle_gamma   90.01392710
_symmetry_Int_Tables_number   1
_chemical_formula_structural   Fe9Cu3O16
_chemical_formula_sum   'Fe9 Cu3 O16'
_cell_volume   287.15356694
_cell_formula_units_Z   1
loop_
 _symmetry_equiv_pos_site_id
 _symmetry_equiv_pos_as_xyz
  1  'x, y, z'
loop_
 _atom_site_type_symbol
 _atom_site_label
 _atom_site_symmetry_multiplicity
 _atom_site_fract_x
 _atom_site_fract_y
 _atom_site_fract_z
 _atom_site_occupancy
  Fe  Fe0  1  0.00064884  0.99800072  0.99750640  1
  Fe  Fe1  1  0.25416458  0.50145958  0.12255793  1
  Fe  Fe2  1  0.74683761  0.50171471  0.12244243  1
  Fe  Fe3  1  0.99973566  0.25079596  0.37751326  1
  Fe  Fe4  1  0.99988151  0.75026650  0.37549382  1
  Fe  Fe5  1  0.74947704  0.99757614  0.62592057  1
  Fe  Fe6  1  0.25037873  0.99872862  0.62599134  1
  Fe  Fe7  1  0.50014107  0.25318639  0.87595498  1
  Fe  Fe8  1  0.49962963  0.74726711  0.87551746  1
  Cu  Cu9  1  0.49970483  0.99822514  0.25336498  1
  Cu  Cu10  1  0.49997138  0.50021941  0.50174004  1
  Cu  Cu11  1  0.00014696  0.50266576  0.74705573  1
  O  O12  1  0.49933446  0.72410212  0.10927986  1
  O  O13  1  0.50036295  0.27657995  0.11056536  1
  O  O14  1  0.00076627  0.26783441  0.12806554  1
  O  O15  1  0.00143297  0.73054196  0.13199539  1
  O  O16  1  0.22657453  0.50663952  0.35662756  1
  O  O17  1  0.77173130  0.50647175  0.35784206  1
  O  O18  1  0.77134724  0.99497940  0.39135795  1
  O  O19  1  0.22716209  0.99288334  0.38938868  1
  O  O20  1  0.99915186  0.77638851  0.61124229  1
  O  O21  1  0.00170786  0.21890417  0.61883057  1
  O  O22  1  0.49960855  0.22455249  0.64221561  1
  O  O23  1  0.49896825  0.77834023  0.64174936  1
  O  O24  1  0.72962052  0.99816770  0.86645517  1
  O  O25  1  0.27064798  0.99910828  0.86654192  1
  O  O26  1  0.27821017  0.50128479  0.88761820  1
  O  O27  1  0.72265516  0.50311534  0.88916555  1
