# generated using pymatgen
data_Sm2Fe17C3
_symmetry_space_group_name_H-M   'P 1'
_cell_length_a   6.52482190
_cell_length_b   6.52482190
_cell_length_c   6.52482171
_cell_angle_alpha   83.71865358
_cell_angle_beta   83.71865358
_cell_angle_gamma   83.71865715
_symmetry_Int_Tables_number   1
_chemical_formula_structural   Sm2Fe17C3
_chemical_formula_sum   'Sm2 Fe17 C3'
_cell_volume   273.11998735
_cell_formula_units_Z   1
loop_
 _symmetry_equiv_pos_site_id
 _symmetry_equiv_pos_as_xyz
  1  'x, y, z'
loop_
 _atom_site_type_symbol
 _atom_site_label
 _atom_site_symmetry_multiplicity
 _atom_site_fract_x
 _atom_site_fract_y
 _atom_site_fract_z
 _atom_site_occupancy
  Sm  Sm0  1  0.34531000  0.34531000  0.34531000  1
  Sm  Sm1  1  0.65468900  0.65468900  0.65468900  1
  Fe  Fe2  1  0.09500800  0.09500800  0.09500800  1
  Fe  Fe3  1  0.90499300  0.90499300  0.90499300  1
  Fe  Fe4  1  0.28426000  0.71573900  0.00000000  1
  Fe  Fe5  1  0.00000000  0.28426100  0.71573900  1
  Fe  Fe6  1  0.71574000  0.00000000  0.28425900  1
  Fe  Fe7  1  0.71573900  0.28426000  0.00000000  1
  Fe  Fe8  1  0.00000000  0.71574000  0.28425900  1
  Fe  Fe9  1  0.28426100  0.00000000  0.71573900  1
  Fe  Fe10  1  0.65824100  0.65824100  0.14223800  1
  Fe  Fe11  1  0.14223700  0.65824200  0.65824200  1
  Fe  Fe12  1  0.65824200  0.14223700  0.65824200  1
  Fe  Fe13  1  0.34175900  0.34175900  0.85776300  1
  Fe  Fe14  1  0.34175800  0.85776400  0.34175900  1
  Fe  Fe15  1  0.85776400  0.34175800  0.34175900  1
  Fe  Fe16  1  0.00000000  0.00000000  0.50000000  1
  Fe  Fe17  1  0.50000100  0.00000000  0.99999900  1
  Fe  Fe18  1  0.00000000  0.50000100  0.99999900  1
  C  C19  1  0.50000000  0.50000000  0.00000000  1
  C  C20  1  0.99999900  0.50000000  0.50000100  1
  C  C21  1  0.50000000  0.99999900  0.50000100  1
