# generated using pymatgen
data_NiCO3
_symmetry_space_group_name_H-M   'P 1'
_cell_length_a   4.65499500
_cell_length_b   5.64648036
_cell_length_c   4.65498795
_cell_angle_alpha   114.34393065
_cell_angle_beta   119.99976167
_cell_angle_gamma   89.99981932
_symmetry_Int_Tables_number   1
_chemical_formula_structural   NiCO3
_chemical_formula_sum   'Ni2 C2 O6'
_cell_volume   93.18833143
_cell_formula_units_Z   2
loop_
 _symmetry_equiv_pos_site_id
 _symmetry_equiv_pos_as_xyz
  1  'x, y, z'
loop_
 _atom_site_type_symbol
 _atom_site_label
 _atom_site_symmetry_multiplicity
 _atom_site_fract_x
 _atom_site_fract_y
 _atom_site_fract_z
 _atom_site_occupancy
  Ni  Ni0  1  0.00000000  0.99999700  0.99999800  1
  Ni  Ni1  1  0.50000100  0.50000400  0.99999800  1
  C  C2  1  0.74997600  0.24999500  0.49999900  1
  C  C3  1  0.25002400  0.75000500  0.50000200  1
  O  O4  1  0.47151200  0.24999300  0.50005700  1
  O  O5  1  0.52848800  0.75000700  0.49994400  1
  O  O6  1  0.74993900  0.24999800  0.22146400  1
  O  O7  1  0.02853500  0.24999100  0.77847600  1
  O  O8  1  0.25006100  0.75000100  0.77853700  1
  O  O9  1  0.97146500  0.75000900  0.22152500  1
