# generated using pymatgen
data_V6O13
_symmetry_space_group_name_H-M   'P 1'
_cell_length_a   3.74202700
_cell_length_b   10.29310307
_cell_length_c   12.17131297
_cell_angle_alpha   100.93459222
_cell_angle_beta   90.00000000
_cell_angle_gamma   90.00000000
_symmetry_Int_Tables_number   1
_chemical_formula_structural   V6O13
_chemical_formula_sum   'V12 O26'
_cell_volume   460.29188817
_cell_formula_units_Z   2
loop_
 _symmetry_equiv_pos_site_id
 _symmetry_equiv_pos_as_xyz
  1  'x, y, z'
loop_
 _atom_site_type_symbol
 _atom_site_label
 _atom_site_symmetry_multiplicity
 _atom_site_fract_x
 _atom_site_fract_y
 _atom_site_fract_z
 _atom_site_occupancy
  V  V0  1  0.24714800  0.36775900  0.90908900  1
  V  V1  1  0.75285200  0.36775900  0.40908900  1
  V  V2  1  0.25325400  0.64000500  0.08340600  1
  V  V3  1  0.74674600  0.64000500  0.58340600  1
  V  V4  1  0.25373000  0.36912400  0.20976600  1
  V  V5  1  0.74627000  0.36912400  0.70976600  1
  V  V6  1  0.75356900  0.63876600  0.28266600  1
  V  V7  1  0.24643100  0.63876600  0.78266600  1
  V  V8  1  0.25867400  0.00525900  0.14096300  1
  V  V9  1  0.74132600  0.00525900  0.64096300  1
  V  V10  1  0.24124800  0.00181400  0.84306500  1
  V  V11  1  0.75875300  0.00181400  0.34306500  1
  O  O12  1  0.74951100  0.41347200  0.55632700  1
  O  O13  1  0.25048900  0.41347200  0.05632700  1
  O  O14  1  0.25588000  0.80651800  0.11155500  1
  O  O15  1  0.74412000  0.80651800  0.61155500  1
  O  O16  1  0.74308400  0.00416800  0.81837300  1
  O  O17  1  0.25691600  0.00416800  0.31837300  1
  O  O18  1  0.74217600  0.20169300  0.67415600  1
  O  O19  1  0.25782400  0.20169300  0.17415600  1
  O  O20  1  0.24958200  0.59576500  0.93638200  1
  O  O21  1  0.75041800  0.59576500  0.43638200  1
  O  O22  1  0.74671600  0.38846600  0.87599300  1
  O  O23  1  0.25328400  0.38846600  0.37599300  1
  O  O24  1  0.75517200  0.20196100  0.38381600  1
  O  O25  1  0.24482800  0.20196100  0.88381600  1
  O  O26  1  0.75653500  0.80600900  0.32033200  1
  O  O27  1  0.24346500  0.80600900  0.82033200  1
  O  O28  1  0.24653000  0.61937600  0.61592200  1
  O  O29  1  0.75347000  0.61937600  0.11592200  1
  O  O30  1  0.24626500  0.41442500  0.74966900  1
  O  O31  1  0.75373500  0.41442500  0.24966900  1
  O  O32  1  0.25366500  0.59334800  0.24264000  1
  O  O33  1  0.74633500  0.59334800  0.74264000  1
  O  O34  1  0.25153300  0.00340200  0.00085600  1
  O  O35  1  0.74846700  0.00340200  0.50085600  1
  O  O36  1  0.75730600  0.00391900  0.17857600  1
  O  O37  1  0.24269400  0.00391900  0.67857600  1
