# generated using pymatgen
data_Rb2V(PO4)2
_symmetry_space_group_name_H-M   'P 1'
_cell_length_a   7.18338100
_cell_length_b   9.22428800
_cell_length_c   13.27057800
_cell_angle_alpha   90.00000000
_cell_angle_beta   90.00000000
_cell_angle_gamma   90.00000000
_symmetry_Int_Tables_number   1
_chemical_formula_structural   Rb2V(PO4)2
_chemical_formula_sum   'Rb8 V4 P8 O32'
_cell_volume   879.32940153
_cell_formula_units_Z   4
loop_
 _symmetry_equiv_pos_site_id
 _symmetry_equiv_pos_as_xyz
  1  'x, y, z'
loop_
 _atom_site_type_symbol
 _atom_site_label
 _atom_site_symmetry_multiplicity
 _atom_site_fract_x
 _atom_site_fract_y
 _atom_site_fract_z
 _atom_site_occupancy
  Rb  Rb0  1  0.76703600  0.38930400  0.58940700  1
  Rb  Rb1  1  0.26703600  0.11069600  0.41059300  1
  Rb  Rb2  1  0.23296400  0.88930400  0.91059300  1
  Rb  Rb3  1  0.73296400  0.61069600  0.08940700  1
  Rb  Rb4  1  0.72888600  0.16990300  0.91117400  1
  Rb  Rb5  1  0.22888600  0.33009700  0.08882600  1
  Rb  Rb6  1  0.27111400  0.66990300  0.58882600  1
  Rb  Rb7  1  0.77111400  0.83009700  0.41117400  1
  V  V8  1  0.74499500  0.24549500  0.30549600  1
  V  V9  1  0.24499500  0.25450500  0.69450400  1
  V  V10  1  0.25500500  0.74549500  0.19450400  1
  V  V11  1  0.75500500  0.75450500  0.80549600  1
  P  P12  1  0.58499400  0.00716700  0.66494800  1
  P  P13  1  0.08499400  0.49283300  0.33505200  1
  P  P14  1  0.41500600  0.50716700  0.83505200  1
  P  P15  1  0.91500600  0.99283300  0.16494800  1
  P  P16  1  0.48937200  0.52853400  0.34670200  1
  P  P17  1  0.98937200  0.97146600  0.65329800  1
  P  P18  1  0.51062800  0.02853400  0.15329800  1
  P  P19  1  0.01062800  0.47146600  0.84670200  1
  O  O20  1  0.52772400  0.92170200  0.57382800  1
  O  O21  1  0.02772400  0.57829800  0.42617200  1
  O  O22  1  0.47227600  0.42170200  0.92617200  1
  O  O23  1  0.97227600  0.07829800  0.07382800  1
  O  O24  1  0.59034300  0.91973500  0.76501500  1
  O  O25  1  0.09034300  0.58026500  0.23498500  1
  O  O26  1  0.40965700  0.41973500  0.73498500  1
  O  O27  1  0.90965700  0.08026500  0.26501500  1
  O  O28  1  0.29912200  0.43151300  0.34863100  1
  O  O29  1  0.79912200  0.06848700  0.65136900  1
  O  O30  1  0.70087800  0.93151300  0.15136900  1
  O  O31  1  0.20087800  0.56848700  0.84863100  1
  O  O32  1  0.48397300  0.15219800  0.68381800  1
  O  O33  1  0.98397300  0.34780200  0.31618200  1
  O  O34  1  0.51602700  0.65219800  0.81618200  1
  O  O35  1  0.01602700  0.84780200  0.18381800  1
  O  O36  1  0.55742300  0.17151700  0.21042200  1
  O  O37  1  0.05742300  0.32848300  0.78957800  1
  O  O38  1  0.44257700  0.67151700  0.28957800  1
  O  O39  1  0.94257700  0.82848300  0.71042200  1
  O  O40  1  0.87423600  0.56073000  0.78138300  1
  O  O41  1  0.37423600  0.93927000  0.21861700  1
  O  O42  1  0.12576400  0.06073000  0.71861700  1
  O  O43  1  0.62576400  0.43927000  0.28138300  1
  O  O44  1  0.82547800  0.80121900  0.91715700  1
  O  O45  1  0.32547800  0.69878100  0.08284300  1
  O  O46  1  0.17452200  0.30121900  0.58284300  1
  O  O47  1  0.67452200  0.19878100  0.41715700  1
  O  O48  1  0.94937900  0.44197400  0.95298700  1
  O  O49  1  0.44937900  0.05802600  0.04701300  1
  O  O50  1  0.05062100  0.94197400  0.54701300  1
  O  O51  1  0.55062100  0.55802600  0.45298700  1
