# generated using pymatgen
data_CuSi(HO2)2
_symmetry_space_group_name_H-M   'P 1'
_cell_length_a   8.90721360
_cell_length_b   8.90721361
_cell_length_c   8.90721361
_cell_angle_alpha   111.81449280
_cell_angle_beta   111.81449277
_cell_angle_gamma   111.81449278
_symmetry_Int_Tables_number   1
_chemical_formula_structural   CuSi(HO2)2
_chemical_formula_sum   'Si6 Cu6 H12 O24'
_cell_volume   491.18704399
_cell_formula_units_Z   6
loop_
 _symmetry_equiv_pos_site_id
 _symmetry_equiv_pos_as_xyz
  1  'x, y, z'
loop_
 _atom_site_type_symbol
 _atom_site_label
 _atom_site_symmetry_multiplicity
 _atom_site_fract_x
 _atom_site_fract_y
 _atom_site_fract_z
 _atom_site_occupancy
  H  H0  1  0.19698395  0.47999422  0.24828281  1
  H  H1  1  0.47999422  0.24828281  0.19698395  1
  H  H2  1  0.24828281  0.19698395  0.47999422  1
  H  H3  1  0.80301605  0.52000578  0.75171719  1
  H  H4  1  0.52000578  0.75171719  0.80301605  1
  H  H5  1  0.75171719  0.80301605  0.52000578  1
  H  H6  1  0.30911652  0.58097858  0.48754272  1
  H  H7  1  0.58097858  0.48754272  0.30911652  1
  H  H8  1  0.48754272  0.30911652  0.58097858  1
  H  H9  1  0.69088348  0.41902142  0.51245728  1
  H  H10  1  0.41902142  0.51245728  0.69088348  1
  H  H11  1  0.51245728  0.69088348  0.41902142  1
  O  O12  1  0.02555205  0.98789964  0.73636242  1
  O  O13  1  0.73636242  0.02555205  0.98789964  1
  O  O14  1  0.98789964  0.73636242  0.02555205  1
  O  O15  1  0.97444795  0.01210036  0.26363758  1
  O  O16  1  0.26363758  0.97444795  0.01210036  1
  O  O17  1  0.01210036  0.26363758  0.97444795  1
  O  O18  1  0.95524859  0.21473698  0.63445812  1
  O  O19  1  0.63445812  0.95524859  0.21473698  1
  O  O20  1  0.21473698  0.63445812  0.95524859  1
  O  O21  1  0.04475141  0.78526302  0.36554188  1
  O  O22  1  0.36554188  0.04475141  0.78526302  1
  O  O23  1  0.78526302  0.36554188  0.04475141  1
  O  O24  1  0.32368241  0.37475997  0.94897465  1
  O  O25  1  0.94897465  0.32368241  0.37475997  1
  O  O26  1  0.37475997  0.94897465  0.32368241  1
  O  O27  1  0.67631759  0.62524003  0.05102535  1
  O  O28  1  0.05102535  0.67631759  0.62524003  1
  O  O29  1  0.62524003  0.05102535  0.67631759  1
  O  O30  1  0.61585303  0.70543109  0.39283724  1
  O  O31  1  0.39283724  0.61585303  0.70543109  1
  O  O32  1  0.70543109  0.39283724  0.61585303  1
  O  O33  1  0.38414697  0.29456891  0.60716276  1
  O  O34  1  0.60716276  0.38414697  0.29456891  1
  O  O35  1  0.29456891  0.60716276  0.38414697  1
  Si  Si36  1  0.78348319  0.17589163  0.91747726  1
  Si  Si37  1  0.17589163  0.91747726  0.78348319  1
  Si  Si38  1  0.91747726  0.78348319  0.17589163  1
  Si  Si39  1  0.21651681  0.82410837  0.08252274  1
  Si  Si40  1  0.82410837  0.08252274  0.21651681  1
  Si  Si41  1  0.08252274  0.21651681  0.82410837  1
  Cu  Cu42  1  0.52950835  0.33849906  0.93862017  1
  Cu  Cu43  1  0.33849906  0.93862017  0.52950835  1
  Cu  Cu44  1  0.93862017  0.52950835  0.33849906  1
  Cu  Cu45  1  0.47049165  0.66150094  0.06137983  1
  Cu  Cu46  1  0.66150094  0.06137983  0.47049165  1
  Cu  Cu47  1  0.06137983  0.47049165  0.66150094  1
